version 2
run ArpPoisoningMitigationECDSAScenario-0-20230517-14:55:52-2933
attr configname ArpPoisoningMitigationECDSAScenario
attr datetime 20230517-14:55:52
attr experiment ArpPoisoningMitigationECDSAScenario
attr inifile omnetpp.ini
attr iterationvars ""
attr iterationvarsf ""
attr measurement ""
attr network Scenario
attr processid 2933
attr repetition 0
attr replication #0
attr resultdir results
attr runnumber 0
attr seedset 0
param *.manager.moduleDisplayString "\"normal_car='i=veins/node/car,green;is=vs' *='i=veins/node/car,red;is=vs'\""
param *.normal_car[*].ipv4.arp.typename "\"networkprojectvanet.mitm.arp_poisoning_mitigation.SecureArp\""
param *.normal_car[*].ipv4.arp.cryptoType "\"ECDSA\""
param *.manager.moduleDisplayString "\"normal_car='i=veins/node/car;is=vs' *='i=veins/node/car,red;is=vs'\""
param *.manager.moduleName "\"normal_car=normal_car *=attacker_car\""
param *.attacker_car[*].ipv4.arp.typename "\"networkprojectvanet.mitm.arp_poisoning_attack.ArpPoisoning\""
param *.attacker_car[*].numApps 1
param *.attacker_car[*].app[0].typename "\"UdpSink\""
param *.attacker_car[*].app[0].localPort 5000
param *.attacker_car[*].routing.deletePeriod 5s
param *.attacker_car[*].ipv4.arp.victim1 "\"normal_car[1]\""
param *.attacker_car[*].ipv4.arp.victim2 "\"normal_car[4]\""
param *.normal_car[*].ipv4.arp.typename "\"Arp\""
param *.normal_car[1].numApps 1
param *.normal_car[1].app[0].typename "\"UdpBasicApp\""
param *.normal_car[1].app[0].destAddresses "\"normal_car[4]\""
param *.normal_car[1].app[0].localPort 5000
param *.normal_car[1].app[0].destPort 5000
param *.normal_car[1].app[0].messageLength 1024B
param *.normal_car[1].app[0].sendInterval 1s
param *.normal_car[1].app[0].startTime 20s
param *.normal_car[1].app[0].packetName "\"UDPData\""
param *.normal_car[*].numApps 1
param *.normal_car[*].app[0].typename "\"UdpSink\""
param *.normal_car[*].app[0].localPort 5000
param *.normal_car[*].routing.deletePeriod 5s
param *.*_car[*].wlan[*].typename "\"AckingWirelessInterface\""
param *.*_car[*].wlan[*].bitrate 2Mbps
param *.*_car[*].wlan[*].mac.headerLength 23B
param *.*_car[*].wlan[*].radio.typename "\"UnitDiskRadio\""
param *.*_car[*].wlan[*].radio.transmitter.headerLength 96b
param *.*_car[*].wlan[*].radio.transmitter.communicationRange 120m
param *.*_car[*].wlan[*].radio.transmitter.interferenceRange 0m
param *.*_car[*].wlan[*].radio.transmitter.detectionRange 0m
param *.*_car[*].wlan[*].radio.receiver.ignoreInterference true
param *.*_car[*].ipv4.configurator.typename "\"HostAutoConfigurator\""
param *.*_car[*].ipv4.configurator.interfaces "\"wlan0\""
param *.*_car[*].ipv4.configurator.mcastGroups "\"224.0.0.1\""
param *.*_car[*].mobility.typename "\"VeinsInetMobility\""
param *.manager.updateInterval 0.1s
param *.manager.launchConfig "xmldoc(\"arcavacatamap.launchd.xml\")"
param *.manager.moduleType "\"normal_car=networkprojectvanet.veins_inet.AodvCar *=networkprojectvanet.veins_inet.AodvCar\""
param *.manager.moduleDisplayString "\"normal_car='i=veins/node/car;is=vs' *='i=veins/node/car;is=vs'\""
param *.manager.moduleName "\"normal_car=normal_car *=normal_car\""
param *.*_car[*].wlan[0].radio.energyConsumer.typename "\"StateBasedEpEnergyConsumer\""
param *.*_car[*].wlan[0].radio.energyConsumer.offPowerConsumption 0mW
param *.*_car[*].wlan[0].radio.energyConsumer.sleepPowerConsumption 1mW
param *.*_car[*].wlan[0].radio.energyConsumer.switchingPowerConsumption 1mW
param *.*_car[*].wlan[0].radio.energyConsumer.receiverIdlePowerConsumption 2mW
param *.*_car[*].wlan[0].radio.energyConsumer.receiverBusyPowerConsumption 5mW
param *.*_car[*].wlan[0].radio.energyConsumer.receiverReceivingPowerConsumption 10mW
param *.*_car[*].wlan[0].radio.energyConsumer.transmitterIdlePowerConsumption 2mW
param *.*_car[*].wlan[0].radio.energyConsumer.transmitterTransmittingPowerConsumption 100mW
param *.*_car[*].energyStorage.typename "\"IdealEpEnergyStorage\""
param *.*_car[*].wlan[0].radio.displayCommunicationRange true
param *.visualizer.networkRouteVisualizer.displayRoutes true

vector 0 Scenario.normal_car[0].energyStorage residualEnergyCapacity:vector ETV
attr interpolationmode linear
attr source residualEnergyCapacityChanged
attr title "Residual energy capacity, vector"
vector 1 Scenario.normal_car[0].energyStorage powerConsumption:vector ETV
attr interpolationmode sample-hold
attr source powerConsumptionChanged
attr title "Power consumption, vector"
vector 2 Scenario.normal_car[0].wlan[0].radio radioMode:vector ETV
attr interpolationmode sample-hold
attr source radioModeChanged
attr title "Radio mode, vector"
vector 3 Scenario.normal_car[0].wlan[0].radio.energyConsumer powerConsumption:vector ETV
attr interpolationmode sample-hold
attr source powerConsumptionChanged
attr title "Power consumption, vector"
vector 4 Scenario.normal_car[0].wlan[0].radio receptionState:vector ETV
attr interpolationmode sample-hold
attr source receptionStateChanged
attr title "Radio reception state, vector"
vector 5 Scenario.normal_car[0].wlan[0].radio transmissionState:vector ETV
attr interpolationmode sample-hold
attr source transmissionStateChanged
attr title "Radio transmission state, vector"
vector 6 Scenario.normal_car[1].energyStorage residualEnergyCapacity:vector ETV
attr interpolationmode linear
attr source residualEnergyCapacityChanged
attr title "Residual energy capacity, vector"
vector 7 Scenario.normal_car[1].energyStorage powerConsumption:vector ETV
attr interpolationmode sample-hold
attr source powerConsumptionChanged
attr title "Power consumption, vector"
vector 8 Scenario.normal_car[1].wlan[0].radio radioMode:vector ETV
attr interpolationmode sample-hold
attr source radioModeChanged
attr title "Radio mode, vector"
vector 9 Scenario.normal_car[1].wlan[0].radio.energyConsumer powerConsumption:vector ETV
attr interpolationmode sample-hold
attr source powerConsumptionChanged
attr title "Power consumption, vector"
vector 10 Scenario.normal_car[1].wlan[0].radio receptionState:vector ETV
attr interpolationmode sample-hold
attr source receptionStateChanged
attr title "Radio reception state, vector"
vector 11 Scenario.normal_car[1].wlan[0].radio transmissionState:vector ETV
attr interpolationmode sample-hold
attr source transmissionStateChanged
attr title "Radio transmission state, vector"
vector 12 Scenario.attacker_car[2].energyStorage residualEnergyCapacity:vector ETV
attr interpolationmode linear
attr source residualEnergyCapacityChanged
attr title "Residual energy capacity, vector"
vector 13 Scenario.attacker_car[2].energyStorage powerConsumption:vector ETV
attr interpolationmode sample-hold
attr source powerConsumptionChanged
attr title "Power consumption, vector"
vector 14 Scenario.attacker_car[2].wlan[0].radio radioMode:vector ETV
attr interpolationmode sample-hold
attr source radioModeChanged
attr title "Radio mode, vector"
vector 15 Scenario.attacker_car[2].wlan[0].radio.energyConsumer powerConsumption:vector ETV
attr interpolationmode sample-hold
attr source powerConsumptionChanged
attr title "Power consumption, vector"
vector 16 Scenario.attacker_car[2].wlan[0].radio receptionState:vector ETV
attr interpolationmode sample-hold
attr source receptionStateChanged
attr title "Radio reception state, vector"
vector 17 Scenario.attacker_car[2].wlan[0].radio transmissionState:vector ETV
attr interpolationmode sample-hold
attr source transmissionStateChanged
attr title "Radio transmission state, vector"
vector 18 Scenario.normal_car[3].energyStorage residualEnergyCapacity:vector ETV
attr interpolationmode linear
attr source residualEnergyCapacityChanged
attr title "Residual energy capacity, vector"
vector 19 Scenario.normal_car[3].energyStorage powerConsumption:vector ETV
attr interpolationmode sample-hold
attr source powerConsumptionChanged
attr title "Power consumption, vector"
vector 20 Scenario.normal_car[3].wlan[0].radio radioMode:vector ETV
attr interpolationmode sample-hold
attr source radioModeChanged
attr title "Radio mode, vector"
vector 21 Scenario.normal_car[3].wlan[0].radio.energyConsumer powerConsumption:vector ETV
attr interpolationmode sample-hold
attr source powerConsumptionChanged
attr title "Power consumption, vector"
vector 22 Scenario.normal_car[3].wlan[0].radio receptionState:vector ETV
attr interpolationmode sample-hold
attr source receptionStateChanged
attr title "Radio reception state, vector"
vector 23 Scenario.normal_car[3].wlan[0].radio transmissionState:vector ETV
attr interpolationmode sample-hold
attr source transmissionStateChanged
attr title "Radio transmission state, vector"
vector 24 Scenario.normal_car[4].energyStorage residualEnergyCapacity:vector ETV
attr interpolationmode linear
attr source residualEnergyCapacityChanged
attr title "Residual energy capacity, vector"
vector 25 Scenario.normal_car[4].energyStorage powerConsumption:vector ETV
attr interpolationmode sample-hold
attr source powerConsumptionChanged
attr title "Power consumption, vector"
vector 26 Scenario.normal_car[4].wlan[0].radio radioMode:vector ETV
attr interpolationmode sample-hold
attr source radioModeChanged
attr title "Radio mode, vector"
vector 27 Scenario.normal_car[4].wlan[0].radio.energyConsumer powerConsumption:vector ETV
attr interpolationmode sample-hold
attr source powerConsumptionChanged
attr title "Power consumption, vector"
vector 28 Scenario.normal_car[4].wlan[0].radio receptionState:vector ETV
attr interpolationmode sample-hold
attr source receptionStateChanged
attr title "Radio reception state, vector"
vector 29 Scenario.normal_car[4].wlan[0].radio transmissionState:vector ETV
attr interpolationmode sample-hold
attr source transmissionStateChanged
attr title "Radio transmission state, vector"
vector 30 Scenario.normal_car[5].energyStorage residualEnergyCapacity:vector ETV
attr interpolationmode linear
attr source residualEnergyCapacityChanged
attr title "Residual energy capacity, vector"
vector 31 Scenario.normal_car[5].energyStorage powerConsumption:vector ETV
attr interpolationmode sample-hold
attr source powerConsumptionChanged
attr title "Power consumption, vector"
vector 32 Scenario.normal_car[5].wlan[0].radio radioMode:vector ETV
attr interpolationmode sample-hold
attr source radioModeChanged
attr title "Radio mode, vector"
vector 33 Scenario.normal_car[5].wlan[0].radio.energyConsumer powerConsumption:vector ETV
attr interpolationmode sample-hold
attr source powerConsumptionChanged
attr title "Power consumption, vector"
vector 34 Scenario.normal_car[5].wlan[0].radio receptionState:vector ETV
attr interpolationmode sample-hold
attr source receptionStateChanged
attr title "Radio reception state, vector"
vector 35 Scenario.normal_car[5].wlan[0].radio transmissionState:vector ETV
attr interpolationmode sample-hold
attr source transmissionStateChanged
attr title "Radio transmission state, vector"
vector 36 Scenario.normal_car[6].energyStorage residualEnergyCapacity:vector ETV
attr interpolationmode linear
attr source residualEnergyCapacityChanged
attr title "Residual energy capacity, vector"
vector 37 Scenario.normal_car[6].energyStorage powerConsumption:vector ETV
attr interpolationmode sample-hold
attr source powerConsumptionChanged
attr title "Power consumption, vector"
vector 38 Scenario.normal_car[6].wlan[0].radio radioMode:vector ETV
attr interpolationmode sample-hold
attr source radioModeChanged
attr title "Radio mode, vector"
vector 39 Scenario.normal_car[6].wlan[0].radio.energyConsumer powerConsumption:vector ETV
attr interpolationmode sample-hold
attr source powerConsumptionChanged
attr title "Power consumption, vector"
vector 40 Scenario.normal_car[6].wlan[0].radio receptionState:vector ETV
attr interpolationmode sample-hold
attr source receptionStateChanged
attr title "Radio reception state, vector"
vector 41 Scenario.normal_car[6].wlan[0].radio transmissionState:vector ETV
attr interpolationmode sample-hold
attr source transmissionStateChanged
attr title "Radio transmission state, vector"
vector 42 Scenario.normal_car[7].energyStorage residualEnergyCapacity:vector ETV
attr interpolationmode linear
attr source residualEnergyCapacityChanged
attr title "Residual energy capacity, vector"
vector 43 Scenario.normal_car[7].energyStorage powerConsumption:vector ETV
attr interpolationmode sample-hold
attr source powerConsumptionChanged
attr title "Power consumption, vector"
vector 44 Scenario.normal_car[7].wlan[0].radio radioMode:vector ETV
attr interpolationmode sample-hold
attr source radioModeChanged
attr title "Radio mode, vector"
vector 45 Scenario.normal_car[7].wlan[0].radio.energyConsumer powerConsumption:vector ETV
attr interpolationmode sample-hold
attr source powerConsumptionChanged
attr title "Power consumption, vector"
vector 46 Scenario.normal_car[7].wlan[0].radio receptionState:vector ETV
attr interpolationmode sample-hold
attr source receptionStateChanged
attr title "Radio reception state, vector"
vector 47 Scenario.normal_car[7].wlan[0].radio transmissionState:vector ETV
attr interpolationmode sample-hold
attr source transmissionStateChanged
attr title "Radio transmission state, vector"
vector 48 Scenario.attacker_car[2].ipv4.arp arpRequestSent:vector(packetBytes) ETV
attr source arpRequestSent
attr title "ARP request sent, vector(packetBytes)"
vector 49 Scenario.attacker_car[2].wlan[0].mac rcvdPkFromHl:vector(packetBytes) ETV
attr interpolationmode none
attr source packetReceivedFromUpper
attr title "packets received from higher layer, vector(packetBytes)"
vector 50 Scenario.attacker_car[2].wlan[0].mac.queue packetPushed:vector(packetBytes) ETV
attr interpolationmode none
attr title "packet pushed, vector(packetBytes)"
vector 51 Scenario.attacker_car[2].wlan[0].mac.queue queueLength:vector ETV
attr interpolationmode sample-hold
attr source "count(packetPushed) - count(packetPopped) - count(packetRemoved) - count(packetDropped)"
attr title "queue length, vector"
vector 52 Scenario.attacker_car[2].wlan[0].mac.queue packetPopped:vector(packetBytes) ETV
attr interpolationmode none
attr title "packet popped, vector(packetBytes)"
vector 53 Scenario.attacker_car[2].wlan[0].mac.queue queueingTime:vector ETV
attr interpolationmode none
attr source queueingTime(packetPopped)
attr title "queueing times, vector"
attr unit s
vector 54 Scenario.attacker_car[2].wlan[0].mac sentDownPk:vector(packetBytes) ETV
attr interpolationmode none
attr source packetSentToLower
attr title "packets sent to lower layer, vector(packetBytes)"
vector 55 Scenario.normal_car[4].wlan[0].mac rcvdPkFromLl:vector(packetBytes) ETV
attr interpolationmode none
attr source packetReceivedFromLower
attr title "packets received from lower layer, vector(packetBytes)"
vector 56 Scenario.normal_car[4].wlan[0].mac passedUpPk:vector(packetBytes) ETV
attr interpolationmode none
attr source packetSentToUpper
attr title "packets passed to higher layer, vector(packetBytes)"
vector 57 Scenario.normal_car[1].wlan[0].mac rcvdPkFromLl:vector(packetBytes) ETV
attr interpolationmode none
attr source packetReceivedFromLower
attr title "packets received from lower layer, vector(packetBytes)"
vector 58 Scenario.normal_car[1].wlan[0].mac passedUpPk:vector(packetBytes) ETV
attr interpolationmode none
attr source packetSentToUpper
attr title "packets passed to higher layer, vector(packetBytes)"
vector 59 Scenario.normal_car[1].ipv4.arp arpReplySent:vector(packetBytes) ETV
attr source arpReplySent
attr title "ARP replies sent, vector(packetBytes)"
vector 60 Scenario.normal_car[1].wlan[0].mac rcvdPkFromHl:vector(packetBytes) ETV
attr interpolationmode none
attr source packetReceivedFromUpper
attr title "packets received from higher layer, vector(packetBytes)"
vector 61 Scenario.normal_car[1].wlan[0].mac.queue packetPushed:vector(packetBytes) ETV
attr interpolationmode none
attr title "packet pushed, vector(packetBytes)"
vector 62 Scenario.normal_car[1].wlan[0].mac.queue queueLength:vector ETV
attr interpolationmode sample-hold
attr source "count(packetPushed) - count(packetPopped) - count(packetRemoved) - count(packetDropped)"
attr title "queue length, vector"
vector 63 Scenario.normal_car[1].wlan[0].mac.queue packetPopped:vector(packetBytes) ETV
attr interpolationmode none
attr title "packet popped, vector(packetBytes)"
vector 64 Scenario.normal_car[1].wlan[0].mac.queue queueingTime:vector ETV
attr interpolationmode none
attr source queueingTime(packetPopped)
attr title "queueing times, vector"
attr unit s
vector 65 Scenario.normal_car[1].wlan[0].mac sentDownPk:vector(packetBytes) ETV
attr interpolationmode none
attr source packetSentToLower
attr title "packets sent to lower layer, vector(packetBytes)"
vector 66 Scenario.normal_car[6].wlan[0].mac rcvdPkFromLl:vector(packetBytes) ETV
attr interpolationmode none
attr source packetReceivedFromLower
attr title "packets received from lower layer, vector(packetBytes)"
vector 67 Scenario.normal_car[6].wlan[0].mac passedUpPk:vector(packetBytes) ETV
attr interpolationmode none
attr source packetSentToUpper
attr title "packets passed to higher layer, vector(packetBytes)"
vector 68 Scenario.attacker_car[2].wlan[0].mac rcvdPkFromLl:vector(packetBytes) ETV
attr interpolationmode none
attr source packetReceivedFromLower
attr title "packets received from lower layer, vector(packetBytes)"
vector 69 Scenario.attacker_car[2].wlan[0].mac passedUpPk:vector(packetBytes) ETV
attr interpolationmode none
attr source packetSentToUpper
attr title "packets passed to higher layer, vector(packetBytes)"
vector 70 Scenario.normal_car[4].wlan[0].mac packetDropNotAddressedToUs:vector(packetBytes) ETV
attr interpolationmode none
attr source packetDropReasonIsNotAddressedToUs(packetDropped)
attr title "packet drop: not addressed to us, vector(packetBytes)"
vector 71 Scenario.normal_car[4].ipv4.arp arpReplySent:vector(packetBytes) ETV
attr source arpReplySent
attr title "ARP replies sent, vector(packetBytes)"
vector 72 Scenario.normal_car[4].wlan[0].mac rcvdPkFromHl:vector(packetBytes) ETV
attr interpolationmode none
attr source packetReceivedFromUpper
attr title "packets received from higher layer, vector(packetBytes)"
vector 73 Scenario.normal_car[4].wlan[0].mac.queue packetPushed:vector(packetBytes) ETV
attr interpolationmode none
attr title "packet pushed, vector(packetBytes)"
vector 74 Scenario.normal_car[4].wlan[0].mac.queue queueLength:vector ETV
attr interpolationmode sample-hold
attr source "count(packetPushed) - count(packetPopped) - count(packetRemoved) - count(packetDropped)"
attr title "queue length, vector"
vector 75 Scenario.normal_car[4].wlan[0].mac.queue packetPopped:vector(packetBytes) ETV
attr interpolationmode none
attr title "packet popped, vector(packetBytes)"
vector 76 Scenario.normal_car[4].wlan[0].mac.queue queueingTime:vector ETV
attr interpolationmode none
attr source queueingTime(packetPopped)
attr title "queueing times, vector"
attr unit s
vector 77 Scenario.normal_car[4].wlan[0].mac sentDownPk:vector(packetBytes) ETV
attr interpolationmode none
attr source packetSentToLower
attr title "packets sent to lower layer, vector(packetBytes)"
vector 78 Scenario.normal_car[6].wlan[0].mac packetDropNotAddressedToUs:vector(packetBytes) ETV
attr interpolationmode none
attr source packetDropReasonIsNotAddressedToUs(packetDropped)
attr title "packet drop: not addressed to us, vector(packetBytes)"
vector 79 Scenario.normal_car[1].wlan[0].mac packetDropNotAddressedToUs:vector(packetBytes) ETV
attr interpolationmode none
attr source packetDropReasonIsNotAddressedToUs(packetDropped)
attr title "packet drop: not addressed to us, vector(packetBytes)"
vector 80 Scenario.attacker_car[2].ipv4.arp arpReplySent:vector(packetBytes) ETV
attr source arpReplySent
attr title "ARP replies sent, vector(packetBytes)"
vector 81 Scenario.normal_car[8].energyStorage residualEnergyCapacity:vector ETV
attr interpolationmode linear
attr source residualEnergyCapacityChanged
attr title "Residual energy capacity, vector"
vector 82 Scenario.normal_car[8].energyStorage powerConsumption:vector ETV
attr interpolationmode sample-hold
attr source powerConsumptionChanged
attr title "Power consumption, vector"
vector 83 Scenario.normal_car[8].wlan[0].radio radioMode:vector ETV
attr interpolationmode sample-hold
attr source radioModeChanged
attr title "Radio mode, vector"
vector 84 Scenario.normal_car[8].wlan[0].radio.energyConsumer powerConsumption:vector ETV
attr interpolationmode sample-hold
attr source powerConsumptionChanged
attr title "Power consumption, vector"
vector 85 Scenario.normal_car[8].wlan[0].radio receptionState:vector ETV
attr interpolationmode sample-hold
attr source receptionStateChanged
attr title "Radio reception state, vector"
vector 86 Scenario.normal_car[8].wlan[0].radio transmissionState:vector ETV
attr interpolationmode sample-hold
attr source transmissionStateChanged
attr title "Radio transmission state, vector"
vector 87 Scenario.normal_car[9].energyStorage residualEnergyCapacity:vector ETV
attr interpolationmode linear
attr source residualEnergyCapacityChanged
attr title "Residual energy capacity, vector"
vector 88 Scenario.normal_car[9].energyStorage powerConsumption:vector ETV
attr interpolationmode sample-hold
attr source powerConsumptionChanged
attr title "Power consumption, vector"
vector 89 Scenario.normal_car[9].wlan[0].radio radioMode:vector ETV
attr interpolationmode sample-hold
attr source radioModeChanged
attr title "Radio mode, vector"
vector 90 Scenario.normal_car[9].wlan[0].radio.energyConsumer powerConsumption:vector ETV
attr interpolationmode sample-hold
attr source powerConsumptionChanged
attr title "Power consumption, vector"
vector 91 Scenario.normal_car[9].wlan[0].radio receptionState:vector ETV
attr interpolationmode sample-hold
attr source receptionStateChanged
attr title "Radio reception state, vector"
vector 92 Scenario.normal_car[9].wlan[0].radio transmissionState:vector ETV
attr interpolationmode sample-hold
attr source transmissionStateChanged
attr title "Radio transmission state, vector"
vector 93 Scenario.normal_car[10].energyStorage residualEnergyCapacity:vector ETV
attr interpolationmode linear
attr source residualEnergyCapacityChanged
attr title "Residual energy capacity, vector"
vector 94 Scenario.normal_car[10].energyStorage powerConsumption:vector ETV
attr interpolationmode sample-hold
attr source powerConsumptionChanged
attr title "Power consumption, vector"
vector 95 Scenario.normal_car[10].wlan[0].radio radioMode:vector ETV
attr interpolationmode sample-hold
attr source radioModeChanged
attr title "Radio mode, vector"
vector 96 Scenario.normal_car[10].wlan[0].radio.energyConsumer powerConsumption:vector ETV
attr interpolationmode sample-hold
attr source powerConsumptionChanged
attr title "Power consumption, vector"
vector 97 Scenario.normal_car[10].wlan[0].radio receptionState:vector ETV
attr interpolationmode sample-hold
attr source receptionStateChanged
attr title "Radio reception state, vector"
vector 98 Scenario.normal_car[10].wlan[0].radio transmissionState:vector ETV
attr interpolationmode sample-hold
attr source transmissionStateChanged
attr title "Radio transmission state, vector"
vector 99 Scenario.normal_car[11].energyStorage residualEnergyCapacity:vector ETV
attr interpolationmode linear
attr source residualEnergyCapacityChanged
attr title "Residual energy capacity, vector"
vector 100 Scenario.normal_car[11].energyStorage powerConsumption:vector ETV
attr interpolationmode sample-hold
attr source powerConsumptionChanged
attr title "Power consumption, vector"
vector 101 Scenario.normal_car[11].wlan[0].radio radioMode:vector ETV
attr interpolationmode sample-hold
attr source radioModeChanged
attr title "Radio mode, vector"
vector 102 Scenario.normal_car[11].wlan[0].radio.energyConsumer powerConsumption:vector ETV
attr interpolationmode sample-hold
attr source powerConsumptionChanged
attr title "Power consumption, vector"
vector 103 Scenario.normal_car[11].wlan[0].radio receptionState:vector ETV
attr interpolationmode sample-hold
attr source receptionStateChanged
attr title "Radio reception state, vector"
vector 104 Scenario.normal_car[11].wlan[0].radio transmissionState:vector ETV
attr interpolationmode sample-hold
attr source transmissionStateChanged
attr title "Radio transmission state, vector"
vector 105 Scenario.normal_car[1].app[0] packetSent:vector(packetBytes) ETV
attr interpolationmode none
attr source packetSent
attr title "packets sent, vector(packetBytes)"
vector 106 Scenario.normal_car[1].udp packetSent:vector(packetBytes) ETV
attr interpolationmode none
attr source packetSent
attr title "packets sent, vector(packetBytes)"
vector 107 Scenario.attacker_car[2].udp packetReceived:vector(packetBytes) ETV
attr interpolationmode none
attr source packetReceived
attr title "packets received, vector(packetBytes)"
vector 108 Scenario.attacker_car[2].udp passedUpPk:vector(count) ETV
attr interpolationmode none
attr source packetSentToUpper
attr title "packets passed up, vector(count)"
vector 109 Scenario.normal_car[4].udp packetReceived:vector(packetBytes) ETV
attr interpolationmode none
attr source packetReceived
attr title "packets received, vector(packetBytes)"
vector 110 Scenario.normal_car[4].udp passedUpPk:vector(count) ETV
attr interpolationmode none
attr source packetSentToUpper
attr title "packets passed up, vector(count)"
vector 111 Scenario.normal_car[4].udp packetSent:vector(packetBytes) ETV
attr interpolationmode none
attr source packetSent
attr title "packets sent, vector(packetBytes)"
vector 112 Scenario.normal_car[4].ipv4.arp arpRequestSent:vector(packetBytes) ETV
attr source arpRequestSent
attr title "ARP request sent, vector(packetBytes)"
vector 113 Scenario.normal_car[8].wlan[0].mac rcvdPkFromLl:vector(packetBytes) ETV
attr interpolationmode none
attr source packetReceivedFromLower
attr title "packets received from lower layer, vector(packetBytes)"
vector 114 Scenario.normal_car[8].wlan[0].mac passedUpPk:vector(packetBytes) ETV
attr interpolationmode none
attr source packetSentToUpper
attr title "packets passed to higher layer, vector(packetBytes)"
vector 115 Scenario.attacker_car[2].wlan[0].mac packetDropNotAddressedToUs:vector(packetBytes) ETV
attr interpolationmode none
attr source packetDropReasonIsNotAddressedToUs(packetDropped)
attr title "packet drop: not addressed to us, vector(packetBytes)"
vector 116 Scenario.normal_car[1].udp packetReceived:vector(packetBytes) ETV
attr interpolationmode none
attr source packetReceived
attr title "packets received, vector(packetBytes)"
vector 117 Scenario.normal_car[1].udp passedUpPk:vector(count) ETV
attr interpolationmode none
attr source packetSentToUpper
attr title "packets passed up, vector(count)"
vector 118 Scenario.normal_car[8].wlan[0].mac packetDropNotAddressedToUs:vector(packetBytes) ETV
attr interpolationmode none
attr source packetDropReasonIsNotAddressedToUs(packetDropped)
attr title "packet drop: not addressed to us, vector(packetBytes)"
vector 119 Scenario.attacker_car[2].udp packetSent:vector(packetBytes) ETV
attr interpolationmode none
attr source packetSent
attr title "packets sent, vector(packetBytes)"
vector 120 Scenario.normal_car[6].udp packetReceived:vector(packetBytes) ETV
attr interpolationmode none
attr source packetReceived
attr title "packets received, vector(packetBytes)"
vector 121 Scenario.normal_car[6].udp passedUpPk:vector(count) ETV
attr interpolationmode none
attr source packetSentToUpper
attr title "packets passed up, vector(count)"
vector 122 Scenario.normal_car[4].app[0] packetReceived:vector(packetBytes) ETV
attr interpolationmode none
attr source packetReceived
attr title "packets received, vector(packetBytes)"
vector 123 Scenario.normal_car[4].app[0] throughput:vector ETV
attr source throughput(packetReceived)
attr title "throughput, vector"
attr unit bps
vector 124 Scenario.normal_car[4].app[0] endToEndDelay:vector ETV
attr interpolationmode none
attr source dataAge(packetReceived)
attr title "end-to-end delay, vector"
attr unit s
vector 125 Scenario.normal_car[4].app[0] rcvdPkSeqNo:vector ETV
attr interpolationmode none
attr source appPkSeqNo(packetReceived)
attr title "received packet sequence number, vector"
vector 126 Scenario.normal_car[12].energyStorage residualEnergyCapacity:vector ETV
attr interpolationmode linear
attr source residualEnergyCapacityChanged
attr title "Residual energy capacity, vector"
vector 127 Scenario.normal_car[12].energyStorage powerConsumption:vector ETV
attr interpolationmode sample-hold
attr source powerConsumptionChanged
attr title "Power consumption, vector"
vector 128 Scenario.normal_car[12].wlan[0].radio radioMode:vector ETV
attr interpolationmode sample-hold
attr source radioModeChanged
attr title "Radio mode, vector"
vector 129 Scenario.normal_car[12].wlan[0].radio.energyConsumer powerConsumption:vector ETV
attr interpolationmode sample-hold
attr source powerConsumptionChanged
attr title "Power consumption, vector"
vector 130 Scenario.normal_car[12].wlan[0].radio receptionState:vector ETV
attr interpolationmode sample-hold
attr source receptionStateChanged
attr title "Radio reception state, vector"
vector 131 Scenario.normal_car[12].wlan[0].radio transmissionState:vector ETV
attr interpolationmode sample-hold
attr source transmissionStateChanged
attr title "Radio transmission state, vector"
vector 132 Scenario.normal_car[13].energyStorage residualEnergyCapacity:vector ETV
attr interpolationmode linear
attr source residualEnergyCapacityChanged
attr title "Residual energy capacity, vector"
vector 133 Scenario.normal_car[13].energyStorage powerConsumption:vector ETV
attr interpolationmode sample-hold
attr source powerConsumptionChanged
attr title "Power consumption, vector"
vector 134 Scenario.normal_car[13].wlan[0].radio radioMode:vector ETV
attr interpolationmode sample-hold
attr source radioModeChanged
attr title "Radio mode, vector"
vector 135 Scenario.normal_car[13].wlan[0].radio.energyConsumer powerConsumption:vector ETV
attr interpolationmode sample-hold
attr source powerConsumptionChanged
attr title "Power consumption, vector"
vector 136 Scenario.normal_car[13].wlan[0].radio receptionState:vector ETV
attr interpolationmode sample-hold
attr source receptionStateChanged
attr title "Radio reception state, vector"
vector 137 Scenario.normal_car[13].wlan[0].radio transmissionState:vector ETV
attr interpolationmode sample-hold
attr source transmissionStateChanged
attr title "Radio transmission state, vector"
0	2	0.1	0
1	2	0.1	0
1	2	0.1	0
1	2	0.1	0
1	2	0.1	0
1	2	0.1	0.002
1	2	0.1	0.004
2	2	0.1	0
2	2	0.1	0
2	2	0.1	4
3	2	0.1	0
3	2	0.1	0
3	2	0.1	0
3	2	0.1	0.002
3	2	0.1	0.004
4	2	0.1	1
5	2	0.1	1
6	2	0.1	0
6	242	13.800000173209	-0.054800000692836
6	252	13.800252173209	-0.054803024692836
6	271	13.800816173209	-0.054860552692836
6	294	14.100000173325	-0.0560572886933
6	306	14.100252173325	-0.0560603126933
6	314	14.100252516156	-0.056060314064624
6	329	14.100816516156	-0.056067082064624
6	347	14.400000173393	-0.057263816693572
6	356	14.400252173393	-0.057266840693572
6	363	14.400252346786	-0.057266841387144
6	377	14.400504346786	-0.057269865387144
6	509	19.400000167518	-0.077267848670072
6	521	19.400252167518	-0.077270872670072
6	527	19.400252335036	-0.077270873340144
6	549	19.400504335036	-0.077273897340144
6	587	20.002964223082	-0.079683736892328
6	599	20.003312223082	-0.079719232892328
6	617	20.003312884132	-0.079719235536528
6	641	20.003564884132	-0.079722259536528
6	667	20.004128884132	-0.079779787536528
6	678	20.004129545182	-0.079779790180728
6	700	20.004461545182	-0.079783774180728
6	732	20.006888486371	-0.080031322182006
6	744	20.007236486371	-0.080069602182006
6	763	20.008809545182	-0.080230054180728
6	812	21	-0.084194816
6	824	21.004348	-0.084638312
6	868	22	-0.08862092
6	880	22.004348	-0.089064416
7	2	0.1	0
7	2	0.1	0
7	2	0.1	0
7	2	0.1	0
7	2	0.1	0.002
7	2	0.1	0.004
7	242	13.800000173209	0.002
7	242	13.800000173209	0.012
7	252	13.800252173209	0.004
7	256	13.800252173209	0.002
7	256	13.800252173209	0.002
7	256	13.800252173209	0.102
7	271	13.800816173209	0.004
7	271	13.800816173209	0.004
7	294	14.100000173325	0.002
7	294	14.100000173325	0.012
7	306	14.100252173325	0.004
7	314	14.100252516156	0.012
7	329	14.100816516156	0.004
7	347	14.400000173393	0.012
7	356	14.400252173393	0.004
7	363	14.400252346786	0.012
7	377	14.400504346786	0.004
7	509	19.400000167518	0.012
7	521	19.400252167518	0.004
7	527	19.400252335036	0.012
7	549	19.400504335036	0.004
7	587	20.002964223082	0.002
7	587	20.002964223082	0.002
7	587	20.002964223082	0.102
7	599	20.003312223082	0.004
7	599	20.003312223082	0.004
7	617	20.003312884132	0.002
7	617	20.003312884132	0.012
7	641	20.003564884132	0.004
7	645	20.003564884132	0.002
7	645	20.003564884132	0.002
7	645	20.003564884132	0.102
7	667	20.004128884132	0.004
7	667	20.004128884132	0.004
7	678	20.004129545182	0.002
7	678	20.004129545182	0.012
7	700	20.004461545182	0.004
7	706	20.004461545182	0.002
7	706	20.004461545182	0.002
7	706	20.004461545182	0.102
7	732	20.006888486371	0.1
7	732	20.006888486371	0.11
7	744	20.007236486371	0.102
7	763	20.008809545182	0.004
7	763	20.008809545182	0.004
7	763	20.008809545182	0.004
7	812	21	0.002
7	812	21	0.102
7	824	21.004348	0.004
7	824	21.004348	0.004
7	868	22	0.002
7	868	22	0.102
7	880	22.004348	0.004
7	880	22.004348	0.004
8	2	0.1	0
8	2	0.1	0
8	2	0.1	4
9	2	0.1	0
9	2	0.1	0
9	2	0.1	0
9	2	0.1	0.002
9	2	0.1	0.004
9	242	13.800000173209	0.002
9	242	13.800000173209	0.012
9	252	13.800252173209	0.004
9	256	13.800252173209	0.002
9	256	13.800252173209	0.002
9	256	13.800252173209	0.102
9	271	13.800816173209	0.004
9	271	13.800816173209	0.004
9	294	14.100000173325	0.002
9	294	14.100000173325	0.012
9	306	14.100252173325	0.004
9	314	14.100252516156	0.012
9	329	14.100816516156	0.004
9	347	14.400000173393	0.012
9	356	14.400252173393	0.004
9	363	14.400252346786	0.012
9	377	14.400504346786	0.004
9	509	19.400000167518	0.012
9	521	19.400252167518	0.004
9	527	19.400252335036	0.012
9	549	19.400504335036	0.004
9	587	20.002964223082	0.002
9	587	20.002964223082	0.002
9	587	20.002964223082	0.102
9	599	20.003312223082	0.004
9	599	20.003312223082	0.004
9	617	20.003312884132	0.002
9	617	20.003312884132	0.012
9	641	20.003564884132	0.004
9	645	20.003564884132	0.002
9	645	20.003564884132	0.002
9	645	20.003564884132	0.102
9	667	20.004128884132	0.004
9	667	20.004128884132	0.004
9	678	20.004129545182	0.002
9	678	20.004129545182	0.012
9	700	20.004461545182	0.004
9	706	20.004461545182	0.002
9	706	20.004461545182	0.002
9	706	20.004461545182	0.102
9	732	20.006888486371	0.1
9	732	20.006888486371	0.11
9	744	20.007236486371	0.102
9	763	20.008809545182	0.004
9	763	20.008809545182	0.004
9	763	20.008809545182	0.004
9	812	21	0.002
9	812	21	0.102
9	824	21.004348	0.004
9	824	21.004348	0.004
9	868	22	0.002
9	868	22	0.102
9	880	22.004348	0.004
9	880	22.004348	0.004
10	2	0.1	1
10	242	13.800000173209	3
10	252	13.800252173209	1
10	294	14.100000173325	3
10	306	14.100252173325	1
10	314	14.100252516156	3
10	329	14.100816516156	1
10	347	14.400000173393	3
10	356	14.400252173393	1
10	363	14.400252346786	3
10	377	14.400504346786	1
10	509	19.400000167518	3
10	521	19.400252167518	1
10	527	19.400252335036	3
10	549	19.400504335036	1
10	617	20.003312884132	3
10	641	20.003564884132	1
10	678	20.004129545182	3
10	700	20.004461545182	1
10	732	20.006888486371	3
10	744	20.007236486371	1
11	2	0.1	1
11	256	13.800252173209	2
11	271	13.800816173209	1
11	587	20.002964223082	2
11	599	20.003312223082	1
11	645	20.003564884132	2
11	667	20.004128884132	1
11	706	20.004461545182	2
11	763	20.008809545182	1
11	812	21	2
11	824	21.004348	1
11	868	22	2
11	880	22.004348	1
12	52	3.8	0
12	240	13.8	-0.04
12	248	13.800252	-0.040025704
12	260	13.800252346418	-0.040025705385672
12	272	13.800816346418	-0.040032473385672
12	292	14.1	-0.041229208
12	300	14.100252	-0.041254912
12	313	14.100252343886	-0.041254913375544
12	326	14.100816343886	-0.041261681375544
12	345	14.4	-0.042458416
12	353	14.400252	-0.04248412
12	358	14.400252173393	-0.042484120693572
12	373	14.400504173393	-0.042509824693572
12	508	19.4	-0.062507808
12	520	19.400252	-0.062533512
12	523	19.400252167518	-0.062533512670072
12	548	19.400504167518	-0.062559216670072
12	588	20.002964381314	-0.064969057525256
12	600	20.003312381314	-0.064973233525256
12	616	20.003312725902	-0.064973234903608
12	638	20.003564725902	-0.064976258903608
12	650	20.003565042364	-0.064976260169456
12	668	20.004129042364	-0.064983028169456
12	677	20.004129386952	-0.064983029547808
12	698	20.004461386952	-0.064987013547808
12	710	20.004461703414	-0.064987014813656
12	731	20.006888328139	-0.065016134310356
12	743	20.007236328139	-0.065054414310356
12	764	20.008809703414	-0.065073294813656
12	813	21.000000137714	-0.069038056550856
12	825	21.004348137714	-0.069090232550856
12	869	22.000000113026	-0.073072840452104
12	881	22.004348113026	-0.073125016452104
13	52	3.8	0
13	52	3.8	0
13	52	3.8	0
13	52	3.8	0
13	52	3.8	0.002
13	52	3.8	0.004
13	240	13.8	0.002
13	240	13.8	0.102
13	248	13.800252	0.004
13	248	13.800252	0.004
13	260	13.800252346418	0.002
13	260	13.800252346418	0.012
13	272	13.800816346418	0.004
13	292	14.1	0.002
13	292	14.1	0.002
13	292	14.1	0.102
13	300	14.100252	0.004
13	300	14.100252	0.004
13	313	14.100252343886	0.002
13	313	14.100252343886	0.012
13	326	14.100816343886	0.004
13	345	14.4	0.002
13	345	14.4	0.002
13	345	14.4	0.102
13	353	14.400252	0.004
13	353	14.400252	0.004
13	358	14.400252173393	0.002
13	358	14.400252173393	0.102
13	373	14.400504173393	0.004
13	373	14.400504173393	0.004
13	508	19.4	0.002
13	508	19.4	0.102
13	520	19.400252	0.004
13	520	19.400252	0.004
13	523	19.400252167518	0.002
13	523	19.400252167518	0.102
13	548	19.400504167518	0.004
13	548	19.400504167518	0.004
13	588	20.002964381314	0.002
13	588	20.002964381314	0.012
13	600	20.003312381314	0.004
13	616	20.003312725902	0.012
13	638	20.003564725902	0.004
13	650	20.003565042364	0.012
13	668	20.004129042364	0.004
13	677	20.004129386952	0.012
13	698	20.004461386952	0.004
13	710	20.004461703414	0.012
13	731	20.006888328139	0.01
13	731	20.006888328139	0.11
13	743	20.007236328139	0.012
13	743	20.007236328139	0.012
13	764	20.008809703414	0.004
13	813	21.000000137714	0.012
13	825	21.004348137714	0.004
13	869	22.000000113026	0.012
13	881	22.004348113026	0.004
14	52	3.8	0
14	52	3.8	0
14	52	3.8	4
15	52	3.8	0
15	52	3.8	0
15	52	3.8	0
15	52	3.8	0.002
15	52	3.8	0.004
15	240	13.8	0.002
15	240	13.8	0.102
15	248	13.800252	0.004
15	248	13.800252	0.004
15	260	13.800252346418	0.002
15	260	13.800252346418	0.012
15	272	13.800816346418	0.004
15	292	14.1	0.002
15	292	14.1	0.002
15	292	14.1	0.102
15	300	14.100252	0.004
15	300	14.100252	0.004
15	313	14.100252343886	0.002
15	313	14.100252343886	0.012
15	326	14.100816343886	0.004
15	345	14.4	0.002
15	345	14.4	0.002
15	345	14.4	0.102
15	353	14.400252	0.004
15	353	14.400252	0.004
15	358	14.400252173393	0.002
15	358	14.400252173393	0.102
15	373	14.400504173393	0.004
15	373	14.400504173393	0.004
15	508	19.4	0.002
15	508	19.4	0.102
15	520	19.400252	0.004
15	520	19.400252	0.004
15	523	19.400252167518	0.002
15	523	19.400252167518	0.102
15	548	19.400504167518	0.004
15	548	19.400504167518	0.004
15	588	20.002964381314	0.002
15	588	20.002964381314	0.012
15	600	20.003312381314	0.004
15	616	20.003312725902	0.012
15	638	20.003564725902	0.004
15	650	20.003565042364	0.012
15	668	20.004129042364	0.004
15	677	20.004129386952	0.012
15	698	20.004461386952	0.004
15	710	20.004461703414	0.012
15	731	20.006888328139	0.01
15	731	20.006888328139	0.11
15	743	20.007236328139	0.012
15	743	20.007236328139	0.012
15	764	20.008809703414	0.004
15	813	21.000000137714	0.012
15	825	21.004348137714	0.004
15	869	22.000000113026	0.012
15	881	22.004348113026	0.004
16	52	3.8	1
16	260	13.800252346418	3
16	272	13.800816346418	1
16	313	14.100252343886	3
16	326	14.100816343886	1
16	588	20.002964381314	3
16	600	20.003312381314	1
16	616	20.003312725902	3
16	638	20.003564725902	1
16	650	20.003565042364	3
16	668	20.004129042364	1
16	677	20.004129386952	3
16	698	20.004461386952	1
16	710	20.004461703414	3
16	764	20.008809703414	1
16	813	21.000000137714	3
16	825	21.004348137714	1
16	869	22.000000113026	3
16	881	22.004348113026	1
17	52	3.8	1
17	240	13.8	2
17	248	13.800252	1
17	292	14.1	2
17	300	14.100252	1
17	345	14.4	2
17	353	14.400252	1
17	358	14.400252173393	2
17	373	14.400504173393	1
17	508	19.4	2
17	520	19.400252	1
17	523	19.400252167518	2
17	548	19.400504167518	1
17	731	20.006888328139	2
17	743	20.007236328139	1
18	58	3.9	0
19	58	3.9	0
19	58	3.9	0
19	58	3.9	0
19	58	3.9	0
19	58	3.9	0.002
19	58	3.9	0.004
20	58	3.9	0
20	58	3.9	0
20	58	3.9	4
21	58	3.9	0
21	58	3.9	0
21	58	3.9	0
21	58	3.9	0.002
21	58	3.9	0.004
22	58	3.9	1
23	58	3.9	1
24	113	7.5	0
24	241	13.800000171057	-0.025200000684228
24	249	13.800252171057	-0.025203024684228
24	261	13.800252516598	-0.025203026066392
24	275	13.800816516598	-0.025209794066392
24	293	14.100000171943	-0.026406528687772
24	301	14.100252171943	-0.026409552687772
24	323	14.100816171943	-0.026467080687772
24	346	14.400000172162	-0.027663816688648
24	354	14.400252172162	-0.027666840688648
24	362	14.400252345555	-0.02766684138222
24	374	14.400504345555	-0.02766986538222
24	510	19.400000172276	-0.047667848689104
24	525	19.400252172276	-0.047670872689104
24	528	19.400252339794	-0.047670873359176
24	551	19.400504339794	-0.047673897359176
24	589	20.002964553607	-0.050083738214428
24	605	20.003312553607	-0.050087914214428
24	634	20.003564553607	-0.050113618214428
24	651	20.003565214657	-0.050113620858628
24	670	20.004129214657	-0.050120388858628
24	695	20.004461214657	-0.050154252858628
24	711	20.004461875707	-0.050154255502828
24	766	20.008809875707	-0.050206431502828
24	814	21.000000309786	-0.054171193239144
24	827	21.004348309786	-0.054223369239144
24	870	22.00000028028	-0.05820597712112
24	883	22.00434828028	-0.05825815312112
25	113	7.5	0
25	113	7.5	0
25	113	7.5	0
25	113	7.5	0
25	113	7.5	0.002
25	113	7.5	0.004
25	241	13.800000171057	0.002
25	241	13.800000171057	0.012
25	249	13.800252171057	0.004
25	261	13.800252516598	0.012
25	275	13.800816516598	0.004
25	293	14.100000171943	0.012
25	301	14.100252171943	0.004
25	305	14.100252171943	0.002
25	305	14.100252171943	0.002
25	305	14.100252171943	0.102
25	323	14.100816171943	0.004
25	323	14.100816171943	0.004
25	346	14.400000172162	0.002
25	346	14.400000172162	0.012
25	354	14.400252172162	0.004
25	362	14.400252345555	0.012
25	374	14.400504345555	0.004
25	510	19.400000172276	0.012
25	525	19.400252172276	0.004
25	528	19.400252339794	0.012
25	551	19.400504339794	0.004
25	589	20.002964553607	0.012
25	605	20.003312553607	0.004
25	613	20.003312553607	0.002
25	613	20.003312553607	0.002
25	613	20.003312553607	0.102
25	634	20.003564553607	0.004
25	634	20.003564553607	0.004
25	651	20.003565214657	0.002
25	651	20.003565214657	0.012
25	670	20.004129214657	0.004
25	674	20.004129214657	0.002
25	674	20.004129214657	0.002
25	674	20.004129214657	0.102
25	695	20.004461214657	0.004
25	695	20.004461214657	0.004
25	711	20.004461875707	0.002
25	711	20.004461875707	0.012
25	766	20.008809875707	0.004
25	814	21.000000309786	0.012
25	827	21.004348309786	0.004
25	870	22.00000028028	0.012
25	883	22.00434828028	0.004
26	113	7.5	0
26	113	7.5	0
26	113	7.5	4
27	113	7.5	0
27	113	7.5	0
27	113	7.5	0
27	113	7.5	0.002
27	113	7.5	0.004
27	241	13.800000171057	0.002
27	241	13.800000171057	0.012
27	249	13.800252171057	0.004
27	261	13.800252516598	0.012
27	275	13.800816516598	0.004
27	293	14.100000171943	0.012
27	301	14.100252171943	0.004
27	305	14.100252171943	0.002
27	305	14.100252171943	0.002
27	305	14.100252171943	0.102
27	323	14.100816171943	0.004
27	323	14.100816171943	0.004
27	346	14.400000172162	0.002
27	346	14.400000172162	0.012
27	354	14.400252172162	0.004
27	362	14.400252345555	0.012
27	374	14.400504345555	0.004
27	510	19.400000172276	0.012
27	525	19.400252172276	0.004
27	528	19.400252339794	0.012
27	551	19.400504339794	0.004
27	589	20.002964553607	0.012
27	605	20.003312553607	0.004
27	613	20.003312553607	0.002
27	613	20.003312553607	0.002
27	613	20.003312553607	0.102
27	634	20.003564553607	0.004
27	634	20.003564553607	0.004
27	651	20.003565214657	0.002
27	651	20.003565214657	0.012
27	670	20.004129214657	0.004
27	674	20.004129214657	0.002
27	674	20.004129214657	0.002
27	674	20.004129214657	0.102
27	695	20.004461214657	0.004
27	695	20.004461214657	0.004
27	711	20.004461875707	0.002
27	711	20.004461875707	0.012
27	766	20.008809875707	0.004
27	814	21.000000309786	0.012
27	827	21.004348309786	0.004
27	870	22.00000028028	0.012
27	883	22.00434828028	0.004
28	113	7.5	1
28	241	13.800000171057	3
28	249	13.800252171057	1
28	261	13.800252516598	3
28	275	13.800816516598	1
28	293	14.100000171943	3
28	301	14.100252171943	1
28	346	14.400000172162	3
28	354	14.400252172162	1
28	362	14.400252345555	3
28	374	14.400504345555	1
28	510	19.400000172276	3
28	525	19.400252172276	1
28	528	19.400252339794	3
28	551	19.400504339794	1
28	589	20.002964553607	3
28	605	20.003312553607	1
28	651	20.003565214657	3
28	670	20.004129214657	1
28	711	20.004461875707	3
28	766	20.008809875707	1
28	814	21.000000309786	3
28	827	21.004348309786	1
28	870	22.00000028028	3
28	883	22.00434828028	1
29	113	7.5	1
29	305	14.100252171943	2
29	323	14.100816171943	1
29	613	20.003312553607	2
29	634	20.003564553607	1
29	674	20.004129214657	2
29	695	20.004461214657	1
30	119	7.6	0
31	119	7.6	0
31	119	7.6	0
31	119	7.6	0
31	119	7.6	0
31	119	7.6	0.002
31	119	7.6	0.004
32	119	7.6	0
32	119	7.6	0
32	119	7.6	4
33	119	7.6	0
33	119	7.6	0
33	119	7.6	0
33	119	7.6	0.002
33	119	7.6	0.004
34	119	7.6	1
35	119	7.6	1
36	182	11.2	0
36	243	13.80000028302	-0.01040000113208
36	257	13.80025228302	-0.01040302513208
36	262	13.800252628814	-0.010403026515256
36	295	14.100000291099	-0.011602017164396
36	309	14.100252291099	-0.011605041164396
36	312	14.100252291287	-0.011605041165148
36	324	14.100816291287	-0.011611809165148
36	348	14.400000298496	-0.012808545193984
36	360	14.400252298496	-0.012811569193984
36	364	14.400252471889	-0.012811569887556
36	379	14.400504471889	-0.012814593887556
36	511	19.400000341547	-0.032812577366188
36	529	19.400252341547	-0.032815601366188
36	532	19.400252509065	-0.03281560203626
36	554	19.400504509065	-0.03281862603626
36	590	20.002964722843	-0.035228466891372
36	615	20.003312723366	-0.035229858893464
36	635	20.003564723366	-0.035232882893464
36	652	20.003565383893	-0.035232885535572
36	676	20.004129384416	-0.035235141537664
36	696	20.004461384416	-0.035239125537664
36	712	20.004462044943	-0.035239128179772
36	734	20.00688866982	-0.03524883467928
36	750	20.00723666982	-0.03525301067928
36	771	20.008810044943	-0.035259304179772
37	182	11.2	0
37	182	11.2	0
37	182	11.2	0
37	182	11.2	0
37	182	11.2	0.002
37	182	11.2	0.004
37	243	13.80000028302	0.002
37	243	13.80000028302	0.012
37	257	13.80025228302	0.004
37	262	13.800252628814	0.004
37	295	14.100000291099	0.002
37	295	14.100000291099	0.012
37	309	14.100252291099	0.004
37	312	14.100252291287	0.012
37	324	14.100816291287	0.004
37	348	14.400000298496	0.012
37	360	14.400252298496	0.004
37	364	14.400252471889	0.012
37	379	14.400504471889	0.004
37	511	19.400000341547	0.012
37	529	19.400252341547	0.004
37	532	19.400252509065	0.012
37	554	19.400504509065	0.004
37	590	20.002964722843	0.004
37	615	20.003312723366	0.002
37	615	20.003312723366	0.012
37	635	20.003564723366	0.004
37	652	20.003565383893	0.004
37	676	20.004129384416	0.002
37	676	20.004129384416	0.012
37	696	20.004461384416	0.004
37	712	20.004462044943	0.004
37	734	20.00688866982	0.002
37	734	20.00688866982	0.012
37	750	20.00723666982	0.004
37	771	20.008810044943	0.004
38	182	11.2	0
38	182	11.2	0
38	182	11.2	4
39	182	11.2	0
39	182	11.2	0
39	182	11.2	0
39	182	11.2	0.002
39	182	11.2	0.004
39	243	13.80000028302	0.002
39	243	13.80000028302	0.012
39	257	13.80025228302	0.004
39	262	13.800252628814	0.004
39	295	14.100000291099	0.002
39	295	14.100000291099	0.012
39	309	14.100252291099	0.004
39	312	14.100252291287	0.012
39	324	14.100816291287	0.004
39	348	14.400000298496	0.012
39	360	14.400252298496	0.004
39	364	14.400252471889	0.012
39	379	14.400504471889	0.004
39	511	19.400000341547	0.012
39	529	19.400252341547	0.004
39	532	19.400252509065	0.012
39	554	19.400504509065	0.004
39	590	20.002964722843	0.004
39	615	20.003312723366	0.002
39	615	20.003312723366	0.012
39	635	20.003564723366	0.004
39	652	20.003565383893	0.004
39	676	20.004129384416	0.002
39	676	20.004129384416	0.012
39	696	20.004461384416	0.004
39	712	20.004462044943	0.004
39	734	20.00688866982	0.002
39	734	20.00688866982	0.012
39	750	20.00723666982	0.004
39	771	20.008810044943	0.004
40	182	11.2	1
40	243	13.80000028302	3
40	257	13.80025228302	1
40	295	14.100000291099	3
40	309	14.100252291099	1
40	312	14.100252291287	3
40	324	14.100816291287	1
40	348	14.400000298496	3
40	360	14.400252298496	1
40	364	14.400252471889	3
40	379	14.400504471889	1
40	511	19.400000341547	3
40	529	19.400252341547	1
40	532	19.400252509065	3
40	554	19.400504509065	1
40	615	20.003312723366	3
40	635	20.003564723366	1
40	676	20.004129384416	3
40	696	20.004461384416	1
40	734	20.00688866982	3
40	750	20.00723666982	1
41	182	11.2	1
42	189	11.4	0
43	189	11.4	0
43	189	11.4	0
43	189	11.4	0
43	189	11.4	0
43	189	11.4	0.002
43	189	11.4	0.004
44	189	11.4	0
44	189	11.4	0
44	189	11.4	4
45	189	11.4	0
45	189	11.4	0
45	189	11.4	0
45	189	11.4	0.002
45	189	11.4	0.004
46	189	11.4	1
47	189	11.4	1
48	236	13.8	28
48	289	14.1	28
49	239	13.8	28
49	291	14.1	28
49	343	14.4	28
49	344	14.4	28
49	506	19.4	28
49	507	19.4	28
49	730	20.006888328139	52
50	239	13.8	28
50	291	14.1	28
50	343	14.4	28
50	344	14.4	28
50	506	19.4	28
50	507	19.4	28
50	730	20.006888328139	52
51	239	13.8	1
51	239	13.8	0
51	291	14.1	1
51	291	14.1	0
51	343	14.4	1
51	343	14.4	0
51	344	14.4	1
51	357	14.400252173393	0
51	506	19.4	1
51	506	19.4	0
51	507	19.4	1
51	522	19.400252167518	0
51	730	20.006888328139	1
51	730	20.006888328139	0
52	239	13.8	28
52	291	14.1	28
52	343	14.4	28
52	357	14.400252173393	28
52	506	19.4	28
52	522	19.400252167518	28
52	730	20.006888328139	52
53	239	13.8	0
53	291	14.1	0
53	343	14.4	0
53	357	14.400252173393	0.000252173393
53	506	19.4	0
53	522	19.400252167518	0.000252167518
53	730	20.006888328139	0
54	239	13.8	51
54	291	14.1	51
54	343	14.4	51
54	357	14.400252173393	51
54	506	19.4	51
54	522	19.400252167518	51
54	730	20.006888328139	75
55	250	13.800252171057	51
55	276	13.800816516598	129
55	302	14.100252171943	51
55	355	14.400252172162	51
55	375	14.400504345555	51
55	526	19.400252172276	51
55	552	19.400504339794	51
55	606	20.003312553607	75
55	671	20.004129214657	129
55	767	20.008809875707	1075
55	828	21.004348309786	1075
55	884	22.00434828028	1075
56	250	13.800252171057	28
56	302	14.100252171943	28
56	375	14.400504345555	28
56	552	19.400504339794	28
56	606	20.003312553607	52
56	671	20.004129214657	106
56	767	20.008809875707	1052
56	828	21.004348309786	1052
56	884	22.00434828028	1052
57	253	13.800252173209	51
57	307	14.100252173325	51
57	330	14.100816516156	129
57	357	14.400252173393	51
57	378	14.400504346786	51
57	522	19.400252167518	51
57	550	19.400504335036	51
57	642	20.003564884132	51
57	701	20.004461545182	71
57	745	20.007236486371	75
58	253	13.800252173209	28
58	307	14.100252173325	28
58	357	14.400252173393	28
58	522	19.400252167518	28
58	642	20.003564884132	28
58	701	20.004461545182	48
58	745	20.007236486371	52
59	254	13.800252173209	106
59	643	20.003564884132	106
60	255	13.800252173209	106
60	586	20.002964223082	52
60	644	20.003564884132	106
60	705	20.004461545182	1052
60	811	21	1052
60	867	22	1052
61	255	13.800252173209	106
61	586	20.002964223082	52
61	644	20.003564884132	106
61	705	20.004461545182	1052
61	811	21	1052
61	867	22	1052
62	255	13.800252173209	1
62	255	13.800252173209	0
62	586	20.002964223082	1
62	586	20.002964223082	0
62	644	20.003564884132	1
62	644	20.003564884132	0
62	705	20.004461545182	1
62	705	20.004461545182	0
62	811	21	1
62	811	21	0
62	867	22	1
62	867	22	0
63	255	13.800252173209	106
63	586	20.002964223082	52
63	644	20.003564884132	106
63	705	20.004461545182	1052
63	811	21	1052
63	867	22	1052
64	255	13.800252173209	0
64	586	20.002964223082	0
64	644	20.003564884132	0
64	705	20.004461545182	0
64	811	21	0
64	867	22	0
65	255	13.800252173209	129
65	586	20.002964223082	75
65	644	20.003564884132	129
65	705	20.004461545182	1075
65	811	21	1075
65	867	22	1075
66	258	13.80025228302	51
66	310	14.100252291099	51
66	325	14.100816291287	129
66	361	14.400252298496	51
66	380	14.400504471889	51
66	530	19.400252341547	51
66	555	19.400504509065	51
66	636	20.003564723366	51
66	697	20.004461384416	71
66	751	20.00723666982	75
67	258	13.80025228302	28
67	310	14.100252291099	28
67	636	20.003564723366	28
67	751	20.00723666982	52
68	273	13.800816346418	129
68	327	14.100816343886	129
68	601	20.003312381314	75
68	639	20.003564725902	51
68	669	20.004129042364	129
68	699	20.004461386952	71
68	765	20.008809703414	1075
68	826	21.004348137714	1075
68	882	22.004348113026	1075
69	273	13.800816346418	106
69	327	14.100816343886	106
69	601	20.003312381314	52
69	639	20.003564725902	28
70	276	13.800816516598	129
70	355	14.400252172162	51
70	526	19.400252172276	51
71	303	14.100252171943	106
72	304	14.100252171943	106
72	612	20.003312553607	28
72	673	20.004129214657	48
73	304	14.100252171943	106
73	612	20.003312553607	28
73	673	20.004129214657	48
74	304	14.100252171943	1
74	304	14.100252171943	0
74	612	20.003312553607	1
74	612	20.003312553607	0
74	673	20.004129214657	1
74	673	20.004129214657	0
75	304	14.100252171943	106
75	612	20.003312553607	28
75	673	20.004129214657	48
76	304	14.100252171943	0
76	612	20.003312553607	0
76	673	20.004129214657	0
77	304	14.100252171943	129
77	612	20.003312553607	51
77	673	20.004129214657	71
78	325	14.100816291287	129
78	361	14.400252298496	51
78	380	14.400504471889	51
78	530	19.400252341547	51
78	555	19.400504509065	51
78	697	20.004461384416	71
79	330	14.100816516156	129
79	378	14.400504346786	51
79	550	19.400504335036	51
80	341	14.4	28
80	341	14.4	28
80	503	19.4	28
80	503	19.4	28
81	395	14.9	0
81	619	20.003312891982	-0.020413251567928
81	646	20.003564891982	-0.020416275567928
81	653	20.003565551495	-0.02041627820598
81	680	20.004129553032	-0.020418534212128
81	707	20.004461553032	-0.020422518212128
81	713	20.004462212545	-0.02042252085018
82	395	14.9	0
82	395	14.9	0
82	395	14.9	0
82	395	14.9	0
82	395	14.9	0.002
82	395	14.9	0.004
82	619	20.003312891982	0.002
82	619	20.003312891982	0.012
82	646	20.003564891982	0.004
82	653	20.003565551495	0.004
82	680	20.004129553032	0.002
82	680	20.004129553032	0.012
82	707	20.004461553032	0.004
82	713	20.004462212545	0.004
83	395	14.9	0
83	395	14.9	0
83	395	14.9	4
84	395	14.9	0
84	395	14.9	0
84	395	14.9	0
84	395	14.9	0.002
84	395	14.9	0.004
84	619	20.003312891982	0.002
84	619	20.003312891982	0.012
84	646	20.003564891982	0.004
84	653	20.003565551495	0.004
84	680	20.004129553032	0.002
84	680	20.004129553032	0.012
84	707	20.004461553032	0.004
84	713	20.004462212545	0.004
85	395	14.9	1
85	619	20.003312891982	3
85	646	20.003564891982	1
85	680	20.004129553032	3
85	707	20.004461553032	1
86	395	14.9	1
87	404	15.1	0
88	404	15.1	0
88	404	15.1	0
88	404	15.1	0
88	404	15.1	0
88	404	15.1	0.002
88	404	15.1	0.004
89	404	15.1	0
89	404	15.1	0
89	404	15.1	4
90	404	15.1	0
90	404	15.1	0
90	404	15.1	0
90	404	15.1	0.002
90	404	15.1	0.004
91	404	15.1	1
92	404	15.1	1
93	479	18.7	0
94	479	18.7	0
94	479	18.7	0
94	479	18.7	0
94	479	18.7	0
94	479	18.7	0.002
94	479	18.7	0.004
95	479	18.7	0
95	479	18.7	0
95	479	18.7	4
96	479	18.7	0
96	479	18.7	0
96	479	18.7	0
96	479	18.7	0.002
96	479	18.7	0.004
97	479	18.7	1
98	479	18.7	1
99	486	18.8	0
100	486	18.8	0
100	486	18.8	0
100	486	18.8	0
100	486	18.8	0
100	486	18.8	0.002
100	486	18.8	0.004
101	486	18.8	0
101	486	18.8	0
101	486	18.8	4
102	486	18.8	0
102	486	18.8	0
102	486	18.8	0
102	486	18.8	0.002
102	486	18.8	0.004
103	486	18.8	1
104	486	18.8	1
105	578	20	1024
105	807	21	1024
105	863	22	1024
106	581	20	1032
106	584	20.002964223082	32
106	809	21	1032
106	865	22	1032
107	603	20.003312381314	32
108	603	20.003312381314	1
109	608	20.003312553607	32
109	769	20.008809875707	1032
109	830	21.004348309786	1032
109	886	22.00434828028	1032
110	608	20.003312553607	1
110	769	20.008809875707	2
110	830	21.004348309786	3
110	886	22.00434828028	4
111	610	20.003312553607	28
112	611	20.003312553607	28
113	647	20.003564891982	51
113	708	20.004461553032	71
114	647	20.003564891982	28
115	669	20.004129042364	129
115	699	20.004461386952	71
115	765	20.008809703414	1075
115	826	21.004348137714	1075
115	882	22.004348113026	1075
116	703	20.004461545182	28
116	747	20.007236486371	32
117	703	20.004461545182	1
117	747	20.007236486371	2
118	708	20.004461553032	71
119	728	20.006888328139	32
120	753	20.00723666982	32
121	753	20.00723666982	1
122	770	20.008809875707	1024
122	831	21.004348309786	1024
122	887	22.00434828028	1024
123	770	0.1	0
123	770	0.2	0
123	770	0.3	0
123	770	0.4	0
123	770	0.5	0
123	770	0.6	0
123	770	0.7	0
123	770	0.8	0
123	770	0.9	0
123	770	1	0
123	770	1.1	0
123	770	1.2	0
123	770	1.3	0
123	770	1.4	0
123	770	1.5	0
123	770	1.6	0
123	770	1.7	0
123	770	1.8	0
123	770	1.9	0
123	770	2	0
123	770	2.1	0
123	770	2.2	0
123	770	2.3	0
123	770	2.4	0
123	770	2.5	0
123	770	2.6	0
123	770	2.7	0
123	770	2.8	0
123	770	2.9	0
123	770	3	0
123	770	3.1	0
123	770	3.2	0
123	770	3.3	0
123	770	3.4	0
123	770	3.5	0
123	770	3.6	0
123	770	3.7	0
123	770	3.8	0
123	770	3.9	0
123	770	4	0
123	770	4.1	0
123	770	4.2	0
123	770	4.3	0
123	770	4.4	0
123	770	4.5	0
123	770	4.6	0
123	770	4.7	0
123	770	4.8	0
123	770	4.9	0
123	770	5	0
123	770	5.1	0
123	770	5.2	0
123	770	5.3	0
123	770	5.4	0
123	770	5.5	0
123	770	5.6	0
123	770	5.7	0
123	770	5.8	0
123	770	5.9	0
123	770	6	0
123	770	6.1	0
123	770	6.2	0
123	770	6.3	0
123	770	6.4	0
123	770	6.5	0
123	770	6.6	0
123	770	6.7	0
123	770	6.8	0
123	770	6.9	0
123	770	7	0
123	770	7.1	0
123	770	7.2	0
123	770	7.3	0
123	770	7.4	0
123	770	7.5	0
123	770	7.6	0
123	770	7.7	0
123	770	7.8	0
123	770	7.9	0
123	770	8	0
123	770	8.1	0
123	770	8.2	0
123	770	8.3	0
123	770	8.4	0
123	770	8.5	0
123	770	8.6	0
123	770	8.7	0
123	770	8.8	0
123	770	8.9	0
123	770	9	0
123	770	9.1	0
123	770	9.2	0
123	770	9.3	0
123	770	9.4	0
123	770	9.5	0
123	770	9.6	0
123	770	9.7	0
123	770	9.8	0
123	770	9.9	0
123	770	10	0
123	770	10.1	0
123	770	10.2	0
123	770	10.3	0
123	770	10.4	0
123	770	10.5	0
123	770	10.6	0
123	770	10.7	0
123	770	10.8	0
123	770	10.9	0
123	770	11	0
123	770	11.1	0
123	770	11.2	0
123	770	11.3	0
123	770	11.4	0
123	770	11.5	0
123	770	11.6	0
123	770	11.7	0
123	770	11.8	0
123	770	11.9	0
123	770	12	0
123	770	12.1	0
123	770	12.2	0
123	770	12.3	0
123	770	12.4	0
123	770	12.5	0
123	770	12.6	0
123	770	12.7	0
123	770	12.8	0
123	770	12.9	0
123	770	13	0
123	770	13.1	0
123	770	13.2	0
123	770	13.3	0
123	770	13.4	0
123	770	13.5	0
123	770	13.6	0
123	770	13.7	0
123	770	13.8	0
123	770	13.9	0
123	770	14	0
123	770	14.1	0
123	770	14.2	0
123	770	14.3	0
123	770	14.4	0
123	770	14.5	0
123	770	14.6	0
123	770	14.7	0
123	770	14.8	0
123	770	14.9	0
123	770	15	0
123	770	15.1	0
123	770	15.2	0
123	770	15.3	0
123	770	15.4	0
123	770	15.5	0
123	770	15.6	0
123	770	15.7	0
123	770	15.8	0
123	770	15.9	0
123	770	16	0
123	770	16.1	0
123	770	16.2	0
123	770	16.3	0
123	770	16.4	0
123	770	16.5	0
123	770	16.6	0
123	770	16.7	0
123	770	16.8	0
123	770	16.9	0
123	770	17	0
123	770	17.1	0
123	770	17.2	0
123	770	17.3	0
123	770	17.4	0
123	770	17.5	0
123	770	17.6	0
123	770	17.7	0
123	770	17.8	0
123	770	17.9	0
123	770	18	0
123	770	18.1	0
123	770	18.2	0
123	770	18.3	0
123	770	18.4	0
123	770	18.5	0
123	770	18.6	0
123	770	18.7	0
123	770	18.8	0
123	770	18.9	0
123	770	19	0
123	770	19.1	0
123	770	19.2	0
123	770	19.3	0
123	770	19.4	0
123	770	19.5	0
123	770	19.6	0
123	770	19.7	0
123	770	19.8	0
123	770	19.9	0
123	770	20	0
123	831	20.1	81920
123	831	20.2	0
123	831	20.3	0
123	831	20.4	0
123	831	20.5	0
123	831	20.6	0
123	831	20.7	0
123	831	20.8	0
123	831	20.9	0
123	831	21	0
123	887	21.1	81920
123	887	21.2	0
123	887	21.3	0
123	887	21.4	0
123	887	21.5	0
123	887	21.6	0
123	887	21.7	0
123	887	21.8	0
123	887	21.9	0
123	887	22	0
124	770	20.008809875707	0.008809875707
124	831	21.004348309786	0.004348309786
124	887	22.00434828028	0.00434828028
125	770	20.008809875707	0
125	831	21.004348309786	1
125	887	22.00434828028	2
126	908	22.5	0
127	908	22.5	0
127	908	22.5	0
127	908	22.5	0
127	908	22.5	0
127	908	22.5	0.002
127	908	22.5	0.004
128	908	22.5	0
128	908	22.5	0
128	908	22.5	4
129	908	22.5	0
129	908	22.5	0
129	908	22.5	0
129	908	22.5	0.002
129	908	22.5	0.004
130	908	22.5	1
131	908	22.5	1
132	908	22.5	0
133	908	22.5	0
133	908	22.5	0
133	908	22.5	0
133	908	22.5	0
133	908	22.5	0.002
133	908	22.5	0.004
134	908	22.5	0
134	908	22.5	0
134	908	22.5	4
135	908	22.5	0
135	908	22.5	0
135	908	22.5	0
135	908	22.5	0.002
135	908	22.5	0.004
136	908	22.5	1
137	908	22.5	1
vector 138 Scenario.normal_car[14].energyStorage residualEnergyCapacity:vector ETV
attr interpolationmode linear
attr source residualEnergyCapacityChanged
attr title "Residual energy capacity, vector"
vector 139 Scenario.normal_car[14].energyStorage powerConsumption:vector ETV
attr interpolationmode sample-hold
attr source powerConsumptionChanged
attr title "Power consumption, vector"
vector 140 Scenario.normal_car[14].wlan[0].radio radioMode:vector ETV
attr interpolationmode sample-hold
attr source radioModeChanged
attr title "Radio mode, vector"
vector 141 Scenario.normal_car[14].wlan[0].radio.energyConsumer powerConsumption:vector ETV
attr interpolationmode sample-hold
attr source powerConsumptionChanged
attr title "Power consumption, vector"
vector 142 Scenario.normal_car[14].wlan[0].radio receptionState:vector ETV
attr interpolationmode sample-hold
attr source receptionStateChanged
attr title "Radio reception state, vector"
vector 143 Scenario.normal_car[14].wlan[0].radio transmissionState:vector ETV
attr interpolationmode sample-hold
attr source transmissionStateChanged
attr title "Radio transmission state, vector"
vector 144 Scenario.normal_car[0].wlan[0].mac rcvdPkFromLl:vector(packetBytes) ETV
attr interpolationmode none
attr source packetReceivedFromLower
attr title "packets received from lower layer, vector(packetBytes)"
vector 145 Scenario.normal_car[0].wlan[0].mac packetDropNotAddressedToUs:vector(packetBytes) ETV
attr interpolationmode none
attr source packetDropReasonIsNotAddressedToUs(packetDropped)
attr title "packet drop: not addressed to us, vector(packetBytes)"
vector 146 Scenario.normal_car[3].wlan[0].mac rcvdPkFromLl:vector(packetBytes) ETV
attr interpolationmode none
attr source packetReceivedFromLower
attr title "packets received from lower layer, vector(packetBytes)"
vector 147 Scenario.normal_car[3].wlan[0].mac packetDropNotAddressedToUs:vector(packetBytes) ETV
attr interpolationmode none
attr source packetDropReasonIsNotAddressedToUs(packetDropped)
attr title "packet drop: not addressed to us, vector(packetBytes)"
vector 148 Scenario.normal_car[5].wlan[0].mac rcvdPkFromLl:vector(packetBytes) ETV
attr interpolationmode none
attr source packetReceivedFromLower
attr title "packets received from lower layer, vector(packetBytes)"
vector 149 Scenario.normal_car[5].wlan[0].mac packetDropNotAddressedToUs:vector(packetBytes) ETV
attr interpolationmode none
attr source packetDropReasonIsNotAddressedToUs(packetDropped)
attr title "packet drop: not addressed to us, vector(packetBytes)"
vector 150 Scenario.normal_car[7].wlan[0].mac rcvdPkFromLl:vector(packetBytes) ETV
attr interpolationmode none
attr source packetReceivedFromLower
attr title "packets received from lower layer, vector(packetBytes)"
vector 151 Scenario.normal_car[7].wlan[0].mac packetDropNotAddressedToUs:vector(packetBytes) ETV
attr interpolationmode none
attr source packetDropReasonIsNotAddressedToUs(packetDropped)
attr title "packet drop: not addressed to us, vector(packetBytes)"
vector 152 Scenario.normal_car[9].wlan[0].mac rcvdPkFromLl:vector(packetBytes) ETV
attr interpolationmode none
attr source packetReceivedFromLower
attr title "packets received from lower layer, vector(packetBytes)"
vector 153 Scenario.normal_car[9].wlan[0].mac packetDropNotAddressedToUs:vector(packetBytes) ETV
attr interpolationmode none
attr source packetDropReasonIsNotAddressedToUs(packetDropped)
attr title "packet drop: not addressed to us, vector(packetBytes)"
vector 154 Scenario.normal_car[11].wlan[0].mac rcvdPkFromLl:vector(packetBytes) ETV
attr interpolationmode none
attr source packetReceivedFromLower
attr title "packets received from lower layer, vector(packetBytes)"
vector 155 Scenario.normal_car[11].wlan[0].mac packetDropNotAddressedToUs:vector(packetBytes) ETV
attr interpolationmode none
attr source packetDropReasonIsNotAddressedToUs(packetDropped)
attr title "packet drop: not addressed to us, vector(packetBytes)"
vector 156 Scenario.normal_car[12].wlan[0].mac rcvdPkFromLl:vector(packetBytes) ETV
attr interpolationmode none
attr source packetReceivedFromLower
attr title "packets received from lower layer, vector(packetBytes)"
vector 157 Scenario.normal_car[12].wlan[0].mac packetDropNotAddressedToUs:vector(packetBytes) ETV
attr interpolationmode none
attr source packetDropReasonIsNotAddressedToUs(packetDropped)
attr title "packet drop: not addressed to us, vector(packetBytes)"
vector 158 Scenario.normal_car[0].app[0] throughput:vector ETV
attr source throughput(packetReceived)
attr title "throughput, vector"
attr unit bps
vector 159 Scenario.normal_car[1].app[0] throughput:vector ETV
attr source throughput(packetReceived)
attr title "throughput, vector"
attr unit bps
vector 160 Scenario.attacker_car[2].app[0] throughput:vector ETV
attr source throughput(packetReceived)
attr title "throughput, vector"
attr unit bps
vector 161 Scenario.normal_car[3].app[0] throughput:vector ETV
attr source throughput(packetReceived)
attr title "throughput, vector"
attr unit bps
vector 162 Scenario.normal_car[5].app[0] throughput:vector ETV
attr source throughput(packetReceived)
attr title "throughput, vector"
attr unit bps
vector 163 Scenario.normal_car[6].app[0] throughput:vector ETV
attr source throughput(packetReceived)
attr title "throughput, vector"
attr unit bps
vector 164 Scenario.normal_car[7].app[0] throughput:vector ETV
attr source throughput(packetReceived)
attr title "throughput, vector"
attr unit bps
vector 165 Scenario.normal_car[8].app[0] throughput:vector ETV
attr source throughput(packetReceived)
attr title "throughput, vector"
attr unit bps
vector 166 Scenario.normal_car[9].app[0] throughput:vector ETV
attr source throughput(packetReceived)
attr title "throughput, vector"
attr unit bps
vector 167 Scenario.normal_car[10].app[0] throughput:vector ETV
attr source throughput(packetReceived)
attr title "throughput, vector"
attr unit bps
vector 168 Scenario.normal_car[11].app[0] throughput:vector ETV
attr source throughput(packetReceived)
attr title "throughput, vector"
attr unit bps
vector 169 Scenario.normal_car[12].app[0] throughput:vector ETV
attr source throughput(packetReceived)
attr title "throughput, vector"
attr unit bps
vector 170 Scenario.normal_car[13].app[0] throughput:vector ETV
attr source throughput(packetReceived)
attr title "throughput, vector"
attr unit bps
vector 171 Scenario.normal_car[14].app[0] throughput:vector ETV
attr source throughput(packetReceived)
attr title "throughput, vector"
attr unit bps
0	1268	27.000000325684	-0.10760000130274
0	1288	27.004348325684	-0.10765217730274
0	1335	28.000000240876	-0.1116347849635
0	1355	28.004348240876	-0.1116869609635
0	1402	29.00000015152	-0.11566956860608
0	1417	29.00434815152	-0.11572174460608
0	1457	29.400000261532	-0.11730435304613
0	1477	29.400252261532	-0.11730737704613
0	1484	29.400252421588	-0.11730737768635
0	1512	29.400504421588	-0.11731040168635
0	1547	30.00000005978	-0.11970838423912
0	1562	30.00434805978	-0.11976056023912
0	1620	31.000000035772	-0.12374316814309
0	1635	31.004348035772	-0.12379534414309
0	1690	32.000000127564	-0.12777795251026
0	1706	32.004348127564	-0.12783012851026
0	1763	33.000000218744	-0.13181273687498
0	1781	33.004348218744	-0.13186491287498
0	1833	34.000000306561	-0.13584752122624
0	1852	34.004348306561	-0.13589969722624
0	1884	34.400000171225	-0.1374823046849
0	1900	34.400252171225	-0.1374853286849
0	1915	34.400252347213	-0.13748532938885
0	1939	34.400504347213	-0.13748835338885
0	1989	35.000000391609	-0.13988633756644
0	2013	35.004348391609	-0.13993851356644
0	2060	36.000000467037	-0.14392112186815
1	1268	27.000000325684	0.002
1	1268	27.000000325684	0.012
1	1288	27.004348325684	0.004
1	1335	28.000000240876	0.012
1	1355	28.004348240876	0.004
1	1402	29.00000015152	0.012
1	1417	29.00434815152	0.004
1	1457	29.400000261532	0.012
1	1477	29.400252261532	0.004
1	1484	29.400252421588	0.012
1	1512	29.400504421588	0.004
1	1547	30.00000005978	0.012
1	1562	30.00434805978	0.004
1	1620	31.000000035772	0.012
1	1635	31.004348035772	0.004
1	1690	32.000000127564	0.012
1	1706	32.004348127564	0.004
1	1763	33.000000218744	0.012
1	1781	33.004348218744	0.004
1	1833	34.000000306561	0.012
1	1852	34.004348306561	0.004
1	1884	34.400000171225	0.012
1	1900	34.400252171225	0.004
1	1915	34.400252347213	0.012
1	1939	34.400504347213	0.004
1	1989	35.000000391609	0.012
1	2013	35.004348391609	0.004
1	2060	36.000000467037	0.004
3	1268	27.000000325684	0.002
3	1268	27.000000325684	0.012
3	1288	27.004348325684	0.004
3	1335	28.000000240876	0.012
3	1355	28.004348240876	0.004
3	1402	29.00000015152	0.012
3	1417	29.00434815152	0.004
3	1457	29.400000261532	0.012
3	1477	29.400252261532	0.004
3	1484	29.400252421588	0.012
3	1512	29.400504421588	0.004
3	1547	30.00000005978	0.012
3	1562	30.00434805978	0.004
3	1620	31.000000035772	0.012
3	1635	31.004348035772	0.004
3	1690	32.000000127564	0.012
3	1706	32.004348127564	0.004
3	1763	33.000000218744	0.012
3	1781	33.004348218744	0.004
3	1833	34.000000306561	0.012
3	1852	34.004348306561	0.004
3	1884	34.400000171225	0.012
3	1900	34.400252171225	0.004
3	1915	34.400252347213	0.012
3	1939	34.400504347213	0.004
3	1989	35.000000391609	0.012
3	2013	35.004348391609	0.004
3	2060	36.000000467037	0.004
4	1268	27.000000325684	3
4	1288	27.004348325684	1
4	1335	28.000000240876	3
4	1355	28.004348240876	1
4	1402	29.00000015152	3
4	1417	29.00434815152	1
4	1457	29.400000261532	3
4	1477	29.400252261532	1
4	1484	29.400252421588	3
4	1512	29.400504421588	1
4	1547	30.00000005978	3
4	1562	30.00434805978	1
4	1620	31.000000035772	3
4	1635	31.004348035772	1
4	1690	32.000000127564	3
4	1706	32.004348127564	1
4	1763	33.000000218744	3
4	1781	33.004348218744	1
4	1833	34.000000306561	3
4	1852	34.004348306561	1
4	1884	34.400000171225	3
4	1900	34.400252171225	1
4	1915	34.400252347213	3
4	1939	34.400504347213	1
4	1989	35.000000391609	3
4	2013	35.004348391609	1
6	934	23	-0.093047024
6	948	23.004348	-0.09349052
6	998	24	-0.097473128
6	1012	24.004348	-0.097916624
6	1045	24.400000096178	-0.099499232384712
6	1059	24.400252096178	-0.099502256384712
6	1065	24.400252192356	-0.099502256769424
6	1091	24.400504192356	-0.099505280769424
6	1129	25	-0.101903264
6	1143	25.004348	-0.10234676
6	1196	26	-0.106329368
6	1210	26.004348	-0.106772864
6	1265	27	-0.110755472
6	1280	27.004348	-0.111198968
6	1332	28	-0.115181576
6	1347	28.004348	-0.115625072
6	1401	29	-0.11960768
6	1416	29.004348	-0.120051176
6	1455	29.400000160056	-0.12163378464022
6	1471	29.400252160056	-0.12163680864022
6	1480	29.400252320112	-0.12163680928045
6	1508	29.400504320112	-0.12163983328045
6	1546	30	-0.124037816
6	1561	30.004348	-0.124481312
6	1619	31	-0.12846392
6	1634	31.004348	-0.128907416
6	1688	32	-0.132890024
6	1703	32.004348	-0.13333352
6	1759	33	-0.137316128
6	1774	33.004348	-0.137759624
6	1828	34	-0.141742232
6	1843	34.004348	-0.142185728
6	1886	34.400000175988	-0.14376833670395
6	1904	34.400252175988	-0.14377136070395
6	1917	34.400252351976	-0.1437713614079
6	1943	34.400504351976	-0.1437743854079
6	1982	35	-0.146172368
6	1997	35.004348	-0.146615864
6	2052	36	-0.150598472
6	2067	36.004348	-0.151041968
6	2123	37	-0.155024576
6	2138	37.004348	-0.155468072
6	2192	38	-0.15945068
6	2207	38.004348	-0.159894176
6	2263	39	-0.163876784
6	2278	39.004348	-0.16432028
6	2319	39.400000175574	-0.1659028887023
6	2336	39.400252175574	-0.1659059127023
6	2348	39.400252351148	-0.16590591340459
6	2375	39.400504351148	-0.16590893740459
6	2415	40	-0.16830692
6	2430	40.004348	-0.168750416
6	2485	41	-0.172733024
6	2500	41.004348	-0.17317652
6	2553	42	-0.177159128
6	2568	42.004348	-0.177602624
6	2622	43	-0.181585232
6	2637	43.004348	-0.182028728
6	2689	44	-0.186011336
6	2704	44.004348	-0.186454832
6	2742	44.400000177203	-0.18803744070881
6	2758	44.400252177203	-0.18804046470881
6	2769	44.400252354406	-0.18804046541762
6	2795	44.400504354406	-0.18804348941762
6	2836	45	-0.190441472
6	2851	45.004348	-0.190884968
6	2902	46	-0.194867576
6	2917	46.004348	-0.195311072
6	2969	47	-0.19929368
6	2984	47.004348	-0.199737176
6	3034	48	-0.203719784
6	3049	48.004348	-0.20416328
6	3100	49	-0.208145888
6	3115	49.004348	-0.208589384
6	3150	49.400000170892	-0.21017199268357
6	3165	49.400252170892	-0.21017501668357
6	3171	49.400252341784	-0.21017501736714
6	3199	49.400504341784	-0.21017804136714
6	3238	50	-0.212576024
6	3253	50.004348	-0.21301952
6	3304	51	-0.217002128
6	3319	51.004348	-0.217445624
6	3369	52	-0.221428232
6	3384	52.004348	-0.221871728
6	3435	53	-0.225854336
6	3450	53.004348	-0.226297832
6	3500	54	-0.23028044
6	3515	54.004348	-0.230723936
6	3550	54.400000177125	-0.2323065447085
6	3565	54.400252177125	-0.2323095687085
6	3573	54.40025235425	-0.232309569417
6	3599	54.40050435425	-0.232312593417
6	3639	55	-0.234710576
6	3654	55.004348	-0.235154072
6	3704	56	-0.23913668
6	3719	56.004348	-0.239580176
6	3770	57	-0.243562784
6	3785	57.004348	-0.24400628
6	3835	58	-0.247988888
6	3850	58.004348	-0.248432384
6	3901	59	-0.252414992
6	3916	59.004348	-0.252858488
6	3951	59.40000016383	-0.25444109665532
6	3966	59.40025216383	-0.25444412065532
6	3972	59.40025232766	-0.25444412131064
6	4000	59.40050432766	-0.25444714531064
6	4039	60	-0.256845128
6	4054	60.004348	-0.257288624
7	934	23	0.002
7	934	23	0.102
7	948	23.004348	0.004
7	948	23.004348	0.004
7	998	24	0.002
7	998	24	0.102
7	1012	24.004348	0.004
7	1012	24.004348	0.004
7	1045	24.400000096178	0.002
7	1045	24.400000096178	0.012
7	1059	24.400252096178	0.004
7	1065	24.400252192356	0.012
7	1091	24.400504192356	0.004
7	1129	25	0.002
7	1129	25	0.002
7	1129	25	0.102
7	1143	25.004348	0.004
7	1143	25.004348	0.004
7	1196	26	0.002
7	1196	26	0.102
7	1210	26.004348	0.004
7	1210	26.004348	0.004
7	1265	27	0.002
7	1265	27	0.102
7	1280	27.004348	0.004
7	1280	27.004348	0.004
7	1332	28	0.002
7	1332	28	0.102
7	1347	28.004348	0.004
7	1347	28.004348	0.004
7	1401	29	0.002
7	1401	29	0.102
7	1416	29.004348	0.004
7	1416	29.004348	0.004
7	1455	29.400000160056	0.002
7	1455	29.400000160056	0.012
7	1471	29.400252160056	0.004
7	1480	29.400252320112	0.012
7	1508	29.400504320112	0.004
7	1546	30	0.002
7	1546	30	0.002
7	1546	30	0.102
7	1561	30.004348	0.004
7	1561	30.004348	0.004
7	1619	31	0.002
7	1619	31	0.102
7	1634	31.004348	0.004
7	1634	31.004348	0.004
7	1688	32	0.002
7	1688	32	0.102
7	1703	32.004348	0.004
7	1703	32.004348	0.004
7	1759	33	0.002
7	1759	33	0.102
7	1774	33.004348	0.004
7	1774	33.004348	0.004
7	1828	34	0.002
7	1828	34	0.102
7	1843	34.004348	0.004
7	1843	34.004348	0.004
7	1886	34.400000175988	0.002
7	1886	34.400000175988	0.012
7	1904	34.400252175988	0.004
7	1917	34.400252351976	0.012
7	1943	34.400504351976	0.004
7	1982	35	0.002
7	1982	35	0.002
7	1982	35	0.102
7	1997	35.004348	0.004
7	1997	35.004348	0.004
7	2052	36	0.002
7	2052	36	0.102
7	2067	36.004348	0.004
7	2067	36.004348	0.004
7	2123	37	0.002
7	2123	37	0.102
7	2138	37.004348	0.004
7	2138	37.004348	0.004
7	2192	38	0.002
7	2192	38	0.102
7	2207	38.004348	0.004
7	2207	38.004348	0.004
7	2263	39	0.002
7	2263	39	0.102
7	2278	39.004348	0.004
7	2278	39.004348	0.004
7	2319	39.400000175574	0.002
7	2319	39.400000175574	0.012
7	2336	39.400252175574	0.004
7	2348	39.400252351148	0.012
7	2375	39.400504351148	0.004
7	2415	40	0.002
7	2415	40	0.002
7	2415	40	0.102
7	2430	40.004348	0.004
7	2430	40.004348	0.004
7	2485	41	0.002
7	2485	41	0.102
7	2500	41.004348	0.004
7	2500	41.004348	0.004
7	2553	42	0.002
7	2553	42	0.102
7	2568	42.004348	0.004
7	2568	42.004348	0.004
7	2622	43	0.002
7	2622	43	0.102
7	2637	43.004348	0.004
7	2637	43.004348	0.004
7	2689	44	0.002
7	2689	44	0.102
7	2704	44.004348	0.004
7	2704	44.004348	0.004
7	2742	44.400000177203	0.002
7	2742	44.400000177203	0.012
7	2758	44.400252177203	0.004
7	2769	44.400252354406	0.012
7	2795	44.400504354406	0.004
7	2836	45	0.002
7	2836	45	0.002
7	2836	45	0.102
7	2851	45.004348	0.004
7	2851	45.004348	0.004
7	2902	46	0.002
7	2902	46	0.102
7	2917	46.004348	0.004
7	2917	46.004348	0.004
7	2969	47	0.002
7	2969	47	0.102
7	2984	47.004348	0.004
7	2984	47.004348	0.004
7	3034	48	0.002
7	3034	48	0.102
7	3049	48.004348	0.004
7	3049	48.004348	0.004
7	3100	49	0.002
7	3100	49	0.102
7	3115	49.004348	0.004
7	3115	49.004348	0.004
7	3150	49.400000170892	0.002
7	3150	49.400000170892	0.012
7	3165	49.400252170892	0.004
7	3171	49.400252341784	0.012
7	3199	49.400504341784	0.004
7	3238	50	0.002
7	3238	50	0.002
7	3238	50	0.102
7	3253	50.004348	0.004
7	3253	50.004348	0.004
7	3304	51	0.002
7	3304	51	0.102
7	3319	51.004348	0.004
7	3319	51.004348	0.004
7	3369	52	0.002
7	3369	52	0.102
7	3384	52.004348	0.004
7	3384	52.004348	0.004
7	3435	53	0.002
7	3435	53	0.102
7	3450	53.004348	0.004
7	3450	53.004348	0.004
7	3500	54	0.002
7	3500	54	0.102
7	3515	54.004348	0.004
7	3515	54.004348	0.004
7	3550	54.400000177125	0.002
7	3550	54.400000177125	0.012
7	3565	54.400252177125	0.004
7	3573	54.40025235425	0.012
7	3599	54.40050435425	0.004
7	3639	55	0.002
7	3639	55	0.002
7	3639	55	0.102
7	3654	55.004348	0.004
7	3654	55.004348	0.004
7	3704	56	0.002
7	3704	56	0.102
7	3719	56.004348	0.004
7	3719	56.004348	0.004
7	3770	57	0.002
7	3770	57	0.102
7	3785	57.004348	0.004
7	3785	57.004348	0.004
7	3835	58	0.002
7	3835	58	0.102
7	3850	58.004348	0.004
7	3850	58.004348	0.004
7	3901	59	0.002
7	3901	59	0.102
7	3916	59.004348	0.004
7	3916	59.004348	0.004
7	3951	59.40000016383	0.002
7	3951	59.40000016383	0.012
7	3966	59.40025216383	0.004
7	3972	59.40025232766	0.012
7	4000	59.40050432766	0.004
7	4039	60	0.002
7	4039	60	0.002
7	4039	60	0.102
7	4054	60.004348	0.004
7	4054	60.004348	0.004
9	934	23	0.002
9	934	23	0.102
9	948	23.004348	0.004
9	948	23.004348	0.004
9	998	24	0.002
9	998	24	0.102
9	1012	24.004348	0.004
9	1012	24.004348	0.004
9	1045	24.400000096178	0.002
9	1045	24.400000096178	0.012
9	1059	24.400252096178	0.004
9	1065	24.400252192356	0.012
9	1091	24.400504192356	0.004
9	1129	25	0.002
9	1129	25	0.002
9	1129	25	0.102
9	1143	25.004348	0.004
9	1143	25.004348	0.004
9	1196	26	0.002
9	1196	26	0.102
9	1210	26.004348	0.004
9	1210	26.004348	0.004
9	1265	27	0.002
9	1265	27	0.102
9	1280	27.004348	0.004
9	1280	27.004348	0.004
9	1332	28	0.002
9	1332	28	0.102
9	1347	28.004348	0.004
9	1347	28.004348	0.004
9	1401	29	0.002
9	1401	29	0.102
9	1416	29.004348	0.004
9	1416	29.004348	0.004
9	1455	29.400000160056	0.002
9	1455	29.400000160056	0.012
9	1471	29.400252160056	0.004
9	1480	29.400252320112	0.012
9	1508	29.400504320112	0.004
9	1546	30	0.002
9	1546	30	0.002
9	1546	30	0.102
9	1561	30.004348	0.004
9	1561	30.004348	0.004
9	1619	31	0.002
9	1619	31	0.102
9	1634	31.004348	0.004
9	1634	31.004348	0.004
9	1688	32	0.002
9	1688	32	0.102
9	1703	32.004348	0.004
9	1703	32.004348	0.004
9	1759	33	0.002
9	1759	33	0.102
9	1774	33.004348	0.004
9	1774	33.004348	0.004
9	1828	34	0.002
9	1828	34	0.102
9	1843	34.004348	0.004
9	1843	34.004348	0.004
9	1886	34.400000175988	0.002
9	1886	34.400000175988	0.012
9	1904	34.400252175988	0.004
9	1917	34.400252351976	0.012
9	1943	34.400504351976	0.004
9	1982	35	0.002
9	1982	35	0.002
9	1982	35	0.102
9	1997	35.004348	0.004
9	1997	35.004348	0.004
9	2052	36	0.002
9	2052	36	0.102
9	2067	36.004348	0.004
9	2067	36.004348	0.004
9	2123	37	0.002
9	2123	37	0.102
9	2138	37.004348	0.004
9	2138	37.004348	0.004
9	2192	38	0.002
9	2192	38	0.102
9	2207	38.004348	0.004
9	2207	38.004348	0.004
9	2263	39	0.002
9	2263	39	0.102
9	2278	39.004348	0.004
9	2278	39.004348	0.004
9	2319	39.400000175574	0.002
9	2319	39.400000175574	0.012
9	2336	39.400252175574	0.004
9	2348	39.400252351148	0.012
9	2375	39.400504351148	0.004
9	2415	40	0.002
9	2415	40	0.002
9	2415	40	0.102
9	2430	40.004348	0.004
9	2430	40.004348	0.004
9	2485	41	0.002
9	2485	41	0.102
9	2500	41.004348	0.004
9	2500	41.004348	0.004
9	2553	42	0.002
9	2553	42	0.102
9	2568	42.004348	0.004
[...]
169	4089	53.8	0
169	4089	53.9	0
169	4089	54	0
169	4089	54.1	0
169	4089	54.2	0
169	4089	54.3	0
169	4089	54.4	0
169	4089	54.5	0
169	4089	54.6	0
169	4089	54.7	0
169	4089	54.8	0
169	4089	54.9	0
169	4089	55	0
169	4089	55.1	0
169	4089	55.2	0
169	4089	55.3	0
169	4089	55.4	0
169	4089	55.5	0
169	4089	55.6	0
169	4089	55.7	0
169	4089	55.8	0
169	4089	55.9	0
169	4089	56	0
169	4089	56.1	0
169	4089	56.2	0
169	4089	56.3	0
169	4089	56.4	0
169	4089	56.5	0
169	4089	56.6	0
169	4089	56.7	0
169	4089	56.8	0
169	4089	56.9	0
169	4089	57	0
169	4089	57.1	0
169	4089	57.2	0
169	4089	57.3	0
169	4089	57.4	0
169	4089	57.5	0
169	4089	57.6	0
169	4089	57.7	0
169	4089	57.8	0
169	4089	57.9	0
169	4089	58	0
169	4089	58.1	0
169	4089	58.2	0
169	4089	58.3	0
169	4089	58.4	0
169	4089	58.5	0
169	4089	58.6	0
169	4089	58.7	0
169	4089	58.8	0
169	4089	58.9	0
169	4089	59	0
169	4089	59.1	0
169	4089	59.2	0
169	4089	59.3	0
169	4089	59.4	0
169	4089	59.5	0
169	4089	59.6	0
169	4089	59.7	0
169	4089	59.8	0
169	4089	59.9	0
169	4089	60	0
169	4089	60.1	0
169	4089	60.2	0
169	4089	60.3	0
169	4089	60.4	0
169	4089	60.5	0
170	4089	0.1	0
170	4089	0.2	0
170	4089	0.3	0
170	4089	0.4	0
170	4089	0.5	0
170	4089	0.6	0
170	4089	0.7	0
170	4089	0.8	0
170	4089	0.9	0
170	4089	1	0
170	4089	1.1	0
170	4089	1.2	0
170	4089	1.3	0
170	4089	1.4	0
170	4089	1.5	0
170	4089	1.6	0
170	4089	1.7	0
170	4089	1.8	0
170	4089	1.9	0
170	4089	2	0
170	4089	2.1	0
170	4089	2.2	0
170	4089	2.3	0
170	4089	2.4	0
170	4089	2.5	0
170	4089	2.6	0
170	4089	2.7	0
170	4089	2.8	0
170	4089	2.9	0
170	4089	3	0
170	4089	3.1	0
170	4089	3.2	0
170	4089	3.3	0
170	4089	3.4	0
170	4089	3.5	0
170	4089	3.6	0
170	4089	3.7	0
170	4089	3.8	0
170	4089	3.9	0
170	4089	4	0
170	4089	4.1	0
170	4089	4.2	0
170	4089	4.3	0
170	4089	4.4	0
170	4089	4.5	0
170	4089	4.6	0
170	4089	4.7	0
170	4089	4.8	0
170	4089	4.9	0
170	4089	5	0
170	4089	5.1	0
170	4089	5.2	0
170	4089	5.3	0
170	4089	5.4	0
170	4089	5.5	0
170	4089	5.6	0
170	4089	5.7	0
170	4089	5.8	0
170	4089	5.9	0
170	4089	6	0
170	4089	6.1	0
170	4089	6.2	0
170	4089	6.3	0
170	4089	6.4	0
170	4089	6.5	0
170	4089	6.6	0
170	4089	6.7	0
170	4089	6.8	0
170	4089	6.9	0
170	4089	7	0
170	4089	7.1	0
170	4089	7.2	0
170	4089	7.3	0
170	4089	7.4	0
170	4089	7.5	0
170	4089	7.6	0
170	4089	7.7	0
170	4089	7.8	0
170	4089	7.9	0
170	4089	8	0
170	4089	8.1	0
170	4089	8.2	0
170	4089	8.3	0
170	4089	8.4	0
170	4089	8.5	0
170	4089	8.6	0
170	4089	8.7	0
170	4089	8.8	0
170	4089	8.9	0
170	4089	9	0
170	4089	9.1	0
170	4089	9.2	0
170	4089	9.3	0
170	4089	9.4	0
170	4089	9.5	0
170	4089	9.6	0
170	4089	9.7	0
170	4089	9.8	0
170	4089	9.9	0
170	4089	10	0
170	4089	10.1	0
170	4089	10.2	0
170	4089	10.3	0
170	4089	10.4	0
170	4089	10.5	0
170	4089	10.6	0
170	4089	10.7	0
170	4089	10.8	0
170	4089	10.9	0
170	4089	11	0
170	4089	11.1	0
170	4089	11.2	0
170	4089	11.3	0
170	4089	11.4	0
170	4089	11.5	0
170	4089	11.6	0
170	4089	11.7	0
170	4089	11.8	0
170	4089	11.9	0
170	4089	12	0
170	4089	12.1	0
170	4089	12.2	0
170	4089	12.3	0
170	4089	12.4	0
170	4089	12.5	0
170	4089	12.6	0
170	4089	12.7	0
170	4089	12.8	0
170	4089	12.9	0
170	4089	13	0
170	4089	13.1	0
170	4089	13.2	0
170	4089	13.3	0
170	4089	13.4	0
170	4089	13.5	0
170	4089	13.6	0
170	4089	13.7	0
170	4089	13.8	0
170	4089	13.9	0
170	4089	14	0
170	4089	14.1	0
170	4089	14.2	0
170	4089	14.3	0
170	4089	14.4	0
170	4089	14.5	0
170	4089	14.6	0
170	4089	14.7	0
170	4089	14.8	0
170	4089	14.9	0
170	4089	15	0
170	4089	15.1	0
170	4089	15.2	0
170	4089	15.3	0
170	4089	15.4	0
170	4089	15.5	0
170	4089	15.6	0
170	4089	15.7	0
170	4089	15.8	0
170	4089	15.9	0
170	4089	16	0
170	4089	16.1	0
170	4089	16.2	0
170	4089	16.3	0
170	4089	16.4	0
170	4089	16.5	0
170	4089	16.6	0
170	4089	16.7	0
170	4089	16.8	0
170	4089	16.9	0
170	4089	17	0
170	4089	17.1	0
170	4089	17.2	0
170	4089	17.3	0
170	4089	17.4	0
170	4089	17.5	0
170	4089	17.6	0
170	4089	17.7	0
170	4089	17.8	0
170	4089	17.9	0
170	4089	18	0
170	4089	18.1	0
170	4089	18.2	0
170	4089	18.3	0
170	4089	18.4	0
170	4089	18.5	0
170	4089	18.6	0
170	4089	18.7	0
170	4089	18.8	0
170	4089	18.9	0
170	4089	19	0
170	4089	19.1	0
170	4089	19.2	0
170	4089	19.3	0
170	4089	19.4	0
170	4089	19.5	0
170	4089	19.6	0
170	4089	19.7	0
170	4089	19.8	0
170	4089	19.9	0
170	4089	20	0
170	4089	20.1	0
170	4089	20.2	0
170	4089	20.3	0
170	4089	20.4	0
170	4089	20.5	0
170	4089	20.6	0
170	4089	20.7	0
170	4089	20.8	0
170	4089	20.9	0
170	4089	21	0
170	4089	21.1	0
170	4089	21.2	0
170	4089	21.3	0
170	4089	21.4	0
170	4089	21.5	0
170	4089	21.6	0
170	4089	21.7	0
170	4089	21.8	0
170	4089	21.9	0
170	4089	22	0
170	4089	22.1	0
170	4089	22.2	0
170	4089	22.3	0
170	4089	22.4	0
170	4089	22.5	0
170	4089	22.6	0
170	4089	22.7	0
170	4089	22.8	0
170	4089	22.9	0
170	4089	23	0
170	4089	23.1	0
170	4089	23.2	0
170	4089	23.3	0
170	4089	23.4	0
170	4089	23.5	0
170	4089	23.6	0
170	4089	23.7	0
170	4089	23.8	0
170	4089	23.9	0
170	4089	24	0
170	4089	24.1	0
170	4089	24.2	0
170	4089	24.3	0
170	4089	24.4	0
170	4089	24.5	0
170	4089	24.6	0
170	4089	24.7	0
170	4089	24.8	0
170	4089	24.9	0
170	4089	25	0
170	4089	25.1	0
170	4089	25.2	0
170	4089	25.3	0
170	4089	25.4	0
170	4089	25.5	0
170	4089	25.6	0
170	4089	25.7	0
170	4089	25.8	0
170	4089	25.9	0
170	4089	26	0
170	4089	26.1	0
170	4089	26.2	0
170	4089	26.3	0
170	4089	26.4	0
170	4089	26.5	0
170	4089	26.6	0
170	4089	26.7	0
170	4089	26.8	0
170	4089	26.9	0
170	4089	27	0
170	4089	27.1	0
170	4089	27.2	0
170	4089	27.3	0
170	4089	27.4	0
170	4089	27.5	0
170	4089	27.6	0
170	4089	27.7	0
170	4089	27.8	0
170	4089	27.9	0
170	4089	28	0
170	4089	28.1	0
170	4089	28.2	0
170	4089	28.3	0
170	4089	28.4	0
170	4089	28.5	0
170	4089	28.6	0
170	4089	28.7	0
170	4089	28.8	0
170	4089	28.9	0
170	4089	29	0
170	4089	29.1	0
170	4089	29.2	0
170	4089	29.3	0
170	4089	29.4	0
170	4089	29.5	0
170	4089	29.6	0
170	4089	29.7	0
170	4089	29.8	0
170	4089	29.9	0
170	4089	30	0
170	4089	30.1	0
170	4089	30.2	0
170	4089	30.3	0
170	4089	30.4	0
170	4089	30.5	0
170	4089	30.6	0
170	4089	30.7	0
170	4089	30.8	0
170	4089	30.9	0
170	4089	31	0
170	4089	31.1	0
170	4089	31.2	0
170	4089	31.3	0
170	4089	31.4	0
170	4089	31.5	0
170	4089	31.6	0
170	4089	31.7	0
170	4089	31.8	0
170	4089	31.9	0
170	4089	32	0
170	4089	32.1	0
170	4089	32.2	0
170	4089	32.3	0
170	4089	32.4	0
170	4089	32.5	0
170	4089	32.6	0
170	4089	32.7	0
170	4089	32.8	0
170	4089	32.9	0
170	4089	33	0
170	4089	33.1	0
170	4089	33.2	0
170	4089	33.3	0
170	4089	33.4	0
170	4089	33.5	0
170	4089	33.6	0
170	4089	33.7	0
170	4089	33.8	0
170	4089	33.9	0
170	4089	34	0
170	4089	34.1	0
170	4089	34.2	0
170	4089	34.3	0
170	4089	34.4	0
170	4089	34.5	0
170	4089	34.6	0
170	4089	34.7	0
170	4089	34.8	0
170	4089	34.9	0
170	4089	35	0
170	4089	35.1	0
170	4089	35.2	0
170	4089	35.3	0
170	4089	35.4	0
170	4089	35.5	0
170	4089	35.6	0
170	4089	35.7	0
170	4089	35.8	0
170	4089	35.9	0
170	4089	36	0
170	4089	36.1	0
170	4089	36.2	0
170	4089	36.3	0
170	4089	36.4	0
170	4089	36.5	0
170	4089	36.6	0
170	4089	36.7	0
170	4089	36.8	0
170	4089	36.9	0
170	4089	37	0
170	4089	37.1	0
170	4089	37.2	0
170	4089	37.3	0
170	4089	37.4	0
170	4089	37.5	0
170	4089	37.6	0
170	4089	37.7	0
170	4089	37.8	0
170	4089	37.9	0
170	4089	38	0
170	4089	38.1	0
170	4089	38.2	0
170	4089	38.3	0
170	4089	38.4	0
170	4089	38.5	0
170	4089	38.6	0
170	4089	38.7	0
170	4089	38.8	0
170	4089	38.9	0
170	4089	39	0
170	4089	39.1	0
170	4089	39.2	0
170	4089	39.3	0
170	4089	39.4	0
170	4089	39.5	0
170	4089	39.6	0
170	4089	39.7	0
170	4089	39.8	0
170	4089	39.9	0
170	4089	40	0
170	4089	40.1	0
170	4089	40.2	0
170	4089	40.3	0
170	4089	40.4	0
170	4089	40.5	0
170	4089	40.6	0
170	4089	40.7	0
170	4089	40.8	0
170	4089	40.9	0
170	4089	41	0
170	4089	41.1	0
170	4089	41.2	0
170	4089	41.3	0
170	4089	41.4	0
170	4089	41.5	0
170	4089	41.6	0
170	4089	41.7	0
170	4089	41.8	0
170	4089	41.9	0
170	4089	42	0
170	4089	42.1	0
170	4089	42.2	0
170	4089	42.3	0
170	4089	42.4	0
170	4089	42.5	0
170	4089	42.6	0
170	4089	42.7	0
170	4089	42.8	0
170	4089	42.9	0
170	4089	43	0
170	4089	43.1	0
170	4089	43.2	0
170	4089	43.3	0
170	4089	43.4	0
170	4089	43.5	0
170	4089	43.6	0
170	4089	43.7	0
170	4089	43.8	0
170	4089	43.9	0
170	4089	44	0
170	4089	44.1	0
170	4089	44.2	0
170	4089	44.3	0
170	4089	44.4	0
170	4089	44.5	0
170	4089	44.6	0
170	4089	44.7	0
170	4089	44.8	0
170	4089	44.9	0
170	4089	45	0
170	4089	45.1	0
170	4089	45.2	0
170	4089	45.3	0
170	4089	45.4	0
170	4089	45.5	0
170	4089	45.6	0
170	4089	45.7	0
170	4089	45.8	0
170	4089	45.9	0
170	4089	46	0
170	4089	46.1	0
170	4089	46.2	0
170	4089	46.3	0
170	4089	46.4	0
170	4089	46.5	0
170	4089	46.6	0
170	4089	46.7	0
170	4089	46.8	0
170	4089	46.9	0
170	4089	47	0
170	4089	47.1	0
170	4089	47.2	0
170	4089	47.3	0
170	4089	47.4	0
170	4089	47.5	0
170	4089	47.6	0
170	4089	47.7	0
170	4089	47.8	0
170	4089	47.9	0
170	4089	48	0
170	4089	48.1	0
170	4089	48.2	0
170	4089	48.3	0
170	4089	48.4	0
170	4089	48.5	0
170	4089	48.6	0
170	4089	48.7	0
170	4089	48.8	0
170	4089	48.9	0
170	4089	49	0
170	4089	49.1	0
170	4089	49.2	0
170	4089	49.3	0
170	4089	49.4	0
170	4089	49.5	0
170	4089	49.6	0
170	4089	49.7	0
170	4089	49.8	0
170	4089	49.9	0
170	4089	50	0
170	4089	50.1	0
170	4089	50.2	0
170	4089	50.3	0
170	4089	50.4	0
170	4089	50.5	0
170	4089	50.6	0
170	4089	50.7	0
170	4089	50.8	0
170	4089	50.9	0
170	4089	51	0
170	4089	51.1	0
170	4089	51.2	0
170	4089	51.3	0
170	4089	51.4	0
170	4089	51.5	0
170	4089	51.6	0
170	4089	51.7	0
170	4089	51.8	0
170	4089	51.9	0
170	4089	52	0
170	4089	52.1	0
170	4089	52.2	0
170	4089	52.3	0
170	4089	52.4	0
170	4089	52.5	0
170	4089	52.6	0
170	4089	52.7	0
170	4089	52.8	0
170	4089	52.9	0
170	4089	53	0
170	4089	53.1	0
170	4089	53.2	0
170	4089	53.3	0
170	4089	53.4	0
170	4089	53.5	0
170	4089	53.6	0
170	4089	53.7	0
170	4089	53.8	0
170	4089	53.9	0
170	4089	54	0
170	4089	54.1	0
170	4089	54.2	0
170	4089	54.3	0
170	4089	54.4	0
170	4089	54.5	0
170	4089	54.6	0
170	4089	54.7	0
170	4089	54.8	0
170	4089	54.9	0
170	4089	55	0
170	4089	55.1	0
170	4089	55.2	0
170	4089	55.3	0
170	4089	55.4	0
170	4089	55.5	0
170	4089	55.6	0
170	4089	55.7	0
170	4089	55.8	0
170	4089	55.9	0
170	4089	56	0
170	4089	56.1	0
170	4089	56.2	0
170	4089	56.3	0
170	4089	56.4	0
170	4089	56.5	0
170	4089	56.6	0
170	4089	56.7	0
170	4089	56.8	0
170	4089	56.9	0
170	4089	57	0
170	4089	57.1	0
170	4089	57.2	0
170	4089	57.3	0
170	4089	57.4	0
170	4089	57.5	0
170	4089	57.6	0
170	4089	57.7	0
170	4089	57.8	0
170	4089	57.9	0
170	4089	58	0
170	4089	58.1	0
170	4089	58.2	0
170	4089	58.3	0
170	4089	58.4	0
170	4089	58.5	0
170	4089	58.6	0
170	4089	58.7	0
170	4089	58.8	0
170	4089	58.9	0
170	4089	59	0
170	4089	59.1	0
170	4089	59.2	0
170	4089	59.3	0
170	4089	59.4	0
170	4089	59.5	0
170	4089	59.6	0
170	4089	59.7	0
170	4089	59.8	0
170	4089	59.9	0
170	4089	60	0
170	4089	60.1	0
170	4089	60.2	0
170	4089	60.3	0
170	4089	60.4	0
170	4089	60.5	0
171	4089	0.1	0
171	4089	0.2	0
171	4089	0.3	0
171	4089	0.4	0
171	4089	0.5	0
171	4089	0.6	0
171	4089	0.7	0
171	4089	0.8	0
171	4089	0.9	0
171	4089	1	0
171	4089	1.1	0
171	4089	1.2	0
171	4089	1.3	0
171	4089	1.4	0
171	4089	1.5	0
171	4089	1.6	0
171	4089	1.7	0
171	4089	1.8	0
171	4089	1.9	0
171	4089	2	0
171	4089	2.1	0
171	4089	2.2	0
171	4089	2.3	0
171	4089	2.4	0
171	4089	2.5	0
171	4089	2.6	0
171	4089	2.7	0
171	4089	2.8	0
171	4089	2.9	0
171	4089	3	0
171	4089	3.1	0
171	4089	3.2	0
171	4089	3.3	0
171	4089	3.4	0
171	4089	3.5	0
171	4089	3.6	0
171	4089	3.7	0
171	4089	3.8	0
171	4089	3.9	0
171	4089	4	0
171	4089	4.1	0
171	4089	4.2	0
171	4089	4.3	0
171	4089	4.4	0
171	4089	4.5	0
171	4089	4.6	0
171	4089	4.7	0
171	4089	4.8	0
171	4089	4.9	0
171	4089	5	0
171	4089	5.1	0
171	4089	5.2	0
171	4089	5.3	0
171	4089	5.4	0
171	4089	5.5	0
171	4089	5.6	0
171	4089	5.7	0
171	4089	5.8	0
171	4089	5.9	0
171	4089	6	0
171	4089	6.1	0
171	4089	6.2	0
171	4089	6.3	0
171	4089	6.4	0
171	4089	6.5	0
171	4089	6.6	0
171	4089	6.7	0
171	4089	6.8	0
171	4089	6.9	0
171	4089	7	0
171	4089	7.1	0
171	4089	7.2	0
171	4089	7.3	0
171	4089	7.4	0
171	4089	7.5	0
171	4089	7.6	0
171	4089	7.7	0
171	4089	7.8	0
171	4089	7.9	0
171	4089	8	0
171	4089	8.1	0
171	4089	8.2	0
171	4089	8.3	0
171	4089	8.4	0
171	4089	8.5	0
171	4089	8.6	0
171	4089	8.7	0
171	4089	8.8	0
171	4089	8.9	0
171	4089	9	0
171	4089	9.1	0
171	4089	9.2	0
171	4089	9.3	0
171	4089	9.4	0
171	4089	9.5	0
171	4089	9.6	0
171	4089	9.7	0
171	4089	9.8	0
171	4089	9.9	0
171	4089	10	0
171	4089	10.1	0
171	4089	10.2	0
171	4089	10.3	0
171	4089	10.4	0
171	4089	10.5	0
171	4089	10.6	0
171	4089	10.7	0
171	4089	10.8	0
171	4089	10.9	0
171	4089	11	0
171	4089	11.1	0
171	4089	11.2	0
171	4089	11.3	0
171	4089	11.4	0
171	4089	11.5	0
171	4089	11.6	0
171	4089	11.7	0
171	4089	11.8	0
171	4089	11.9	0
171	4089	12	0
171	4089	12.1	0
171	4089	12.2	0
171	4089	12.3	0
171	4089	12.4	0
171	4089	12.5	0
171	4089	12.6	0
171	4089	12.7	0
171	4089	12.8	0
171	4089	12.9	0
171	4089	13	0
171	4089	13.1	0
171	4089	13.2	0
171	4089	13.3	0
171	4089	13.4	0
171	4089	13.5	0
171	4089	13.6	0
171	4089	13.7	0
171	4089	13.8	0
171	4089	13.9	0
171	4089	14	0
171	4089	14.1	0
171	4089	14.2	0
171	4089	14.3	0
171	4089	14.4	0
171	4089	14.5	0
171	4089	14.6	0
171	4089	14.7	0
171	4089	14.8	0
171	4089	14.9	0
171	4089	15	0
171	4089	15.1	0
171	4089	15.2	0
171	4089	15.3	0
171	4089	15.4	0
171	4089	15.5	0
171	4089	15.6	0
171	4089	15.7	0
171	4089	15.8	0
171	4089	15.9	0
171	4089	16	0
171	4089	16.1	0
171	4089	16.2	0
171	4089	16.3	0
171	4089	16.4	0
171	4089	16.5	0
171	4089	16.6	0
171	4089	16.7	0
171	4089	16.8	0
171	4089	16.9	0
171	4089	17	0
171	4089	17.1	0
171	4089	17.2	0
171	4089	17.3	0
171	4089	17.4	0
171	4089	17.5	0
171	4089	17.6	0
171	4089	17.7	0
171	4089	17.8	0
171	4089	17.9	0
171	4089	18	0
171	4089	18.1	0
171	4089	18.2	0
171	4089	18.3	0
171	4089	18.4	0
171	4089	18.5	0
171	4089	18.6	0
171	4089	18.7	0
171	4089	18.8	0
171	4089	18.9	0
171	4089	19	0
171	4089	19.1	0
171	4089	19.2	0
171	4089	19.3	0
171	4089	19.4	0
171	4089	19.5	0
171	4089	19.6	0
171	4089	19.7	0
171	4089	19.8	0
171	4089	19.9	0
171	4089	20	0
171	4089	20.1	0
171	4089	20.2	0
171	4089	20.3	0
171	4089	20.4	0
171	4089	20.5	0
171	4089	20.6	0
171	4089	20.7	0
171	4089	20.8	0
171	4089	20.9	0
171	4089	21	0
171	4089	21.1	0
171	4089	21.2	0
171	4089	21.3	0
171	4089	21.4	0
171	4089	21.5	0
171	4089	21.6	0
171	4089	21.7	0
171	4089	21.8	0
171	4089	21.9	0
171	4089	22	0
171	4089	22.1	0
171	4089	22.2	0
171	4089	22.3	0
171	4089	22.4	0
171	4089	22.5	0
171	4089	22.6	0
171	4089	22.7	0
171	4089	22.8	0
171	4089	22.9	0
171	4089	23	0
171	4089	23.1	0
171	4089	23.2	0
171	4089	23.3	0
171	4089	23.4	0
171	4089	23.5	0
171	4089	23.6	0
171	4089	23.7	0
171	4089	23.8	0
171	4089	23.9	0
171	4089	24	0
171	4089	24.1	0
171	4089	24.2	0
171	4089	24.3	0
171	4089	24.4	0
171	4089	24.5	0
171	4089	24.6	0
171	4089	24.7	0
171	4089	24.8	0
171	4089	24.9	0
171	4089	25	0
171	4089	25.1	0
171	4089	25.2	0
171	4089	25.3	0
171	4089	25.4	0
171	4089	25.5	0
171	4089	25.6	0
171	4089	25.7	0
171	4089	25.8	0
171	4089	25.9	0
171	4089	26	0
171	4089	26.1	0
171	4089	26.2	0
171	4089	26.3	0
171	4089	26.4	0
171	4089	26.5	0
171	4089	26.6	0
171	4089	26.7	0
171	4089	26.8	0
171	4089	26.9	0
171	4089	27	0
171	4089	27.1	0
171	4089	27.2	0
171	4089	27.3	0
171	4089	27.4	0
171	4089	27.5	0
171	4089	27.6	0
171	4089	27.7	0
171	4089	27.8	0
171	4089	27.9	0
171	4089	28	0
171	4089	28.1	0
171	4089	28.2	0
171	4089	28.3	0
171	4089	28.4	0
171	4089	28.5	0
171	4089	28.6	0
171	4089	28.7	0
171	4089	28.8	0
171	4089	28.9	0
171	4089	29	0
171	4089	29.1	0
171	4089	29.2	0
171	4089	29.3	0
171	4089	29.4	0
171	4089	29.5	0
171	4089	29.6	0
171	4089	29.7	0
171	4089	29.8	0
171	4089	29.9	0
171	4089	30	0
171	4089	30.1	0
171	4089	30.2	0
171	4089	30.3	0
171	4089	30.4	0
171	4089	30.5	0
171	4089	30.6	0
171	4089	30.7	0
171	4089	30.8	0
171	4089	30.9	0
171	4089	31	0
171	4089	31.1	0
171	4089	31.2	0
171	4089	31.3	0
171	4089	31.4	0
171	4089	31.5	0
171	4089	31.6	0
171	4089	31.7	0
171	4089	31.8	0
171	4089	31.9	0
171	4089	32	0
171	4089	32.1	0
171	4089	32.2	0
171	4089	32.3	0
171	4089	32.4	0
171	4089	32.5	0
171	4089	32.6	0
171	4089	32.7	0
171	4089	32.8	0
171	4089	32.9	0
171	4089	33	0
171	4089	33.1	0
171	4089	33.2	0
171	4089	33.3	0
171	4089	33.4	0
171	4089	33.5	0
171	4089	33.6	0
171	4089	33.7	0
171	4089	33.8	0
171	4089	33.9	0
171	4089	34	0
171	4089	34.1	0
171	4089	34.2	0
171	4089	34.3	0
171	4089	34.4	0
171	4089	34.5	0
171	4089	34.6	0
171	4089	34.7	0
171	4089	34.8	0
171	4089	34.9	0
171	4089	35	0
171	4089	35.1	0
171	4089	35.2	0
171	4089	35.3	0
171	4089	35.4	0
171	4089	35.5	0
171	4089	35.6	0
171	4089	35.7	0
171	4089	35.8	0
171	4089	35.9	0
171	4089	36	0
171	4089	36.1	0
171	4089	36.2	0
171	4089	36.3	0
171	4089	36.4	0
171	4089	36.5	0
171	4089	36.6	0
171	4089	36.7	0
171	4089	36.8	0
171	4089	36.9	0
171	4089	37	0
171	4089	37.1	0
171	4089	37.2	0
171	4089	37.3	0
171	4089	37.4	0
171	4089	37.5	0
171	4089	37.6	0
171	4089	37.7	0
171	4089	37.8	0
171	4089	37.9	0
171	4089	38	0
171	4089	38.1	0
171	4089	38.2	0
171	4089	38.3	0
171	4089	38.4	0
171	4089	38.5	0
171	4089	38.6	0
171	4089	38.7	0
171	4089	38.8	0
171	4089	38.9	0
171	4089	39	0
171	4089	39.1	0
171	4089	39.2	0
171	4089	39.3	0
171	4089	39.4	0
171	4089	39.5	0
171	4089	39.6	0
171	4089	39.7	0
171	4089	39.8	0
171	4089	39.9	0
171	4089	40	0
171	4089	40.1	0
171	4089	40.2	0
171	4089	40.3	0
171	4089	40.4	0
171	4089	40.5	0
171	4089	40.6	0
171	4089	40.7	0
171	4089	40.8	0
171	4089	40.9	0
171	4089	41	0
171	4089	41.1	0
171	4089	41.2	0
171	4089	41.3	0
171	4089	41.4	0
171	4089	41.5	0
171	4089	41.6	0
171	4089	41.7	0
171	4089	41.8	0
171	4089	41.9	0
171	4089	42	0
171	4089	42.1	0
171	4089	42.2	0
171	4089	42.3	0
171	4089	42.4	0
171	4089	42.5	0
171	4089	42.6	0
171	4089	42.7	0
171	4089	42.8	0
171	4089	42.9	0
171	4089	43	0
171	4089	43.1	0
171	4089	43.2	0
171	4089	43.3	0
171	4089	43.4	0
171	4089	43.5	0
171	4089	43.6	0
171	4089	43.7	0
171	4089	43.8	0
171	4089	43.9	0
171	4089	44	0
171	4089	44.1	0
171	4089	44.2	0
171	4089	44.3	0
171	4089	44.4	0
171	4089	44.5	0
171	4089	44.6	0
171	4089	44.7	0
171	4089	44.8	0
171	4089	44.9	0
171	4089	45	0
171	4089	45.1	0
171	4089	45.2	0
171	4089	45.3	0
171	4089	45.4	0
171	4089	45.5	0
171	4089	45.6	0
171	4089	45.7	0
171	4089	45.8	0
171	4089	45.9	0
171	4089	46	0
171	4089	46.1	0
171	4089	46.2	0
171	4089	46.3	0
171	4089	46.4	0
171	4089	46.5	0
171	4089	46.6	0
171	4089	46.7	0
171	4089	46.8	0
171	4089	46.9	0
171	4089	47	0
171	4089	47.1	0
171	4089	47.2	0
171	4089	47.3	0
171	4089	47.4	0
171	4089	47.5	0
171	4089	47.6	0
171	4089	47.7	0
171	4089	47.8	0
171	4089	47.9	0
171	4089	48	0
171	4089	48.1	0
171	4089	48.2	0
171	4089	48.3	0
171	4089	48.4	0
171	4089	48.5	0
171	4089	48.6	0
171	4089	48.7	0
171	4089	48.8	0
171	4089	48.9	0
171	4089	49	0
171	4089	49.1	0
171	4089	49.2	0
171	4089	49.3	0
171	4089	49.4	0
171	4089	49.5	0
171	4089	49.6	0
171	4089	49.7	0
171	4089	49.8	0
171	4089	49.9	0
171	4089	50	0
171	4089	50.1	0
171	4089	50.2	0
171	4089	50.3	0
171	4089	50.4	0
171	4089	50.5	0
171	4089	50.6	0
171	4089	50.7	0
171	4089	50.8	0
171	4089	50.9	0
171	4089	51	0
171	4089	51.1	0
171	4089	51.2	0
171	4089	51.3	0
171	4089	51.4	0
171	4089	51.5	0
171	4089	51.6	0
171	4089	51.7	0
171	4089	51.8	0
171	4089	51.9	0
171	4089	52	0
171	4089	52.1	0
171	4089	52.2	0
171	4089	52.3	0
171	4089	52.4	0
171	4089	52.5	0
171	4089	52.6	0
171	4089	52.7	0
171	4089	52.8	0
171	4089	52.9	0
171	4089	53	0
171	4089	53.1	0
171	4089	53.2	0
171	4089	53.3	0
171	4089	53.4	0
171	4089	53.5	0
171	4089	53.6	0
171	4089	53.7	0
171	4089	53.8	0
171	4089	53.9	0
171	4089	54	0
171	4089	54.1	0
171	4089	54.2	0
171	4089	54.3	0
171	4089	54.4	0
171	4089	54.5	0
171	4089	54.6	0
171	4089	54.7	0
171	4089	54.8	0
171	4089	54.9	0
171	4089	55	0
171	4089	55.1	0
171	4089	55.2	0
171	4089	55.3	0
171	4089	55.4	0
171	4089	55.5	0
171	4089	55.6	0
171	4089	55.7	0
171	4089	55.8	0
171	4089	55.9	0
171	4089	56	0
171	4089	56.1	0
171	4089	56.2	0
171	4089	56.3	0
171	4089	56.4	0
171	4089	56.5	0
171	4089	56.6	0
171	4089	56.7	0
171	4089	56.8	0
171	4089	56.9	0
171	4089	57	0
171	4089	57.1	0
171	4089	57.2	0
171	4089	57.3	0
171	4089	57.4	0
171	4089	57.5	0
171	4089	57.6	0
171	4089	57.7	0
171	4089	57.8	0
171	4089	57.9	0
171	4089	58	0
171	4089	58.1	0
171	4089	58.2	0
171	4089	58.3	0
171	4089	58.4	0
171	4089	58.5	0
171	4089	58.6	0
171	4089	58.7	0
171	4089	58.8	0
171	4089	58.9	0
171	4089	59	0
171	4089	59.1	0
171	4089	59.2	0
171	4089	59.3	0
171	4089	59.4	0
171	4089	59.5	0
171	4089	59.6	0
171	4089	59.7	0
171	4089	59.8	0
171	4089	59.9	0
171	4089	60	0
171	4089	60.1	0
171	4089	60.2	0
171	4089	60.3	0
171	4089	60.4	0
171	4089	60.5	0

