version 2
run ArpPoisoningAttackScenario-0-20230515-22:52:36-4910
attr configname ArpPoisoningAttackScenario
attr datetime 20230515-22:52:36
attr experiment ArpPoisoningAttackScenario
attr inifile omnetpp.ini
attr iterationvars ""
attr iterationvarsf ""
attr measurement ""
attr network Scenario
attr processid 4910
attr repetition 0
attr replication #0
attr resultdir results
attr runnumber 0
attr seedset 0
param *.manager.moduleDisplayString "\"normal_car='i=veins/node/car;is=vs' *='i=veins/node/car,red;is=vs'\""
param *.manager.moduleName "\"normal_car=normal_car *=attacker_car\""
param *.attacker_car[*].ipv4.arp.typename "\"networkprojectvanet.mitm.arp_poisoning_attack.ArpPoisoning\""
param *.attacker_car[*].numApps 1
param *.attacker_car[*].app[0].typename "\"UdpSink\""
param *.attacker_car[*].app[0].localPort 5000
param *.attacker_car[*].routing.deletePeriod 5s
param *.attacker_car[*].ipv4.arp.victim1 "\"normal_car[1]\""
param *.attacker_car[*].ipv4.arp.victim2 "\"normal_car[4]\""
param *.normal_car[*].ipv4.arp.typename "\"Arp\""
param *.normal_car[1].numApps 1
param *.normal_car[1].app[0].typename "\"UdpBasicApp\""
param *.normal_car[1].app[0].destAddresses "\"normal_car[4]\""
param *.normal_car[1].app[0].localPort 5000
param *.normal_car[1].app[0].destPort 5000
param *.normal_car[1].app[0].messageLength 1024B
param *.normal_car[1].app[0].sendInterval 1s
param *.normal_car[1].app[0].startTime 20s
param *.normal_car[1].app[0].packetName "\"UDPData\""
param *.normal_car[*].numApps 1
param *.normal_car[*].app[0].typename "\"UdpSink\""
param *.normal_car[*].app[0].localPort 5000
param *.normal_car[*].routing.deletePeriod 5s
param *.*_car[*].wlan[*].typename "\"AckingWirelessInterface\""
param *.*_car[*].wlan[*].bitrate 2Mbps
param *.*_car[*].wlan[*].mac.headerLength 23B
param *.*_car[*].wlan[*].radio.typename "\"UnitDiskRadio\""
param *.*_car[*].wlan[*].radio.transmitter.headerLength 96b
param *.*_car[*].wlan[*].radio.transmitter.communicationRange 120m
param *.*_car[*].wlan[*].radio.transmitter.interferenceRange 0m
param *.*_car[*].wlan[*].radio.transmitter.detectionRange 0m
param *.*_car[*].wlan[*].radio.receiver.ignoreInterference true
param *.*_car[*].ipv4.configurator.typename "\"HostAutoConfigurator\""
param *.*_car[*].ipv4.configurator.interfaces "\"wlan0\""
param *.*_car[*].ipv4.configurator.mcastGroups "\"224.0.0.1\""
param *.*_car[*].mobility.typename "\"VeinsInetMobility\""
param *.manager.updateInterval 0.1s
param *.manager.launchConfig "xmldoc(\"arcavacatamap.launchd.xml\")"
param *.manager.moduleType "\"normal_car=networkprojectvanet.veins_inet.AodvCar *=networkprojectvanet.veins_inet.AodvCar\""
param *.manager.moduleDisplayString "\"normal_car='i=veins/node/car;is=vs' *='i=veins/node/car;is=vs'\""
param *.manager.moduleName "\"normal_car=normal_car *=normal_car\""
param *.*_car[*].wlan[0].radio.energyConsumer.typename "\"StateBasedEpEnergyConsumer\""
param *.*_car[*].wlan[0].radio.energyConsumer.offPowerConsumption 0mW
param *.*_car[*].wlan[0].radio.energyConsumer.sleepPowerConsumption 1mW
param *.*_car[*].wlan[0].radio.energyConsumer.switchingPowerConsumption 1mW
param *.*_car[*].wlan[0].radio.energyConsumer.receiverIdlePowerConsumption 2mW
param *.*_car[*].wlan[0].radio.energyConsumer.receiverBusyPowerConsumption 5mW
param *.*_car[*].wlan[0].radio.energyConsumer.receiverReceivingPowerConsumption 10mW
param *.*_car[*].wlan[0].radio.energyConsumer.transmitterIdlePowerConsumption 2mW
param *.*_car[*].wlan[0].radio.energyConsumer.transmitterTransmittingPowerConsumption 100mW
param *.*_car[*].energyStorage.typename "\"IdealEpEnergyStorage\""
param *.*_car[*].wlan[0].radio.displayCommunicationRange true
param *.visualizer.networkRouteVisualizer.displayRoutes true

vector 0 Scenario.normal_car[0].energyStorage residualEnergyCapacity:vector ETV
attr interpolationmode linear
attr source residualEnergyCapacityChanged
attr title "Residual energy capacity, vector"
vector 1 Scenario.normal_car[0].energyStorage powerConsumption:vector ETV
attr interpolationmode sample-hold
attr source powerConsumptionChanged
attr title "Power consumption, vector"
vector 2 Scenario.normal_car[0].wlan[0].radio radioMode:vector ETV
attr interpolationmode sample-hold
attr source radioModeChanged
attr title "Radio mode, vector"
vector 3 Scenario.normal_car[0].wlan[0].radio.energyConsumer powerConsumption:vector ETV
attr interpolationmode sample-hold
attr source powerConsumptionChanged
attr title "Power consumption, vector"
vector 4 Scenario.normal_car[0].wlan[0].radio receptionState:vector ETV
attr interpolationmode sample-hold
attr source receptionStateChanged
attr title "Radio reception state, vector"
vector 5 Scenario.normal_car[0].wlan[0].radio transmissionState:vector ETV
attr interpolationmode sample-hold
attr source transmissionStateChanged
attr title "Radio transmission state, vector"
vector 6 Scenario.normal_car[1].energyStorage residualEnergyCapacity:vector ETV
attr interpolationmode linear
attr source residualEnergyCapacityChanged
attr title "Residual energy capacity, vector"
vector 7 Scenario.normal_car[1].energyStorage powerConsumption:vector ETV
attr interpolationmode sample-hold
attr source powerConsumptionChanged
attr title "Power consumption, vector"
vector 8 Scenario.normal_car[1].wlan[0].radio radioMode:vector ETV
attr interpolationmode sample-hold
attr source radioModeChanged
attr title "Radio mode, vector"
vector 9 Scenario.normal_car[1].wlan[0].radio.energyConsumer powerConsumption:vector ETV
attr interpolationmode sample-hold
attr source powerConsumptionChanged
attr title "Power consumption, vector"
vector 10 Scenario.normal_car[1].wlan[0].radio receptionState:vector ETV
attr interpolationmode sample-hold
attr source receptionStateChanged
attr title "Radio reception state, vector"
vector 11 Scenario.normal_car[1].wlan[0].radio transmissionState:vector ETV
attr interpolationmode sample-hold
attr source transmissionStateChanged
attr title "Radio transmission state, vector"
vector 12 Scenario.attacker_car[2].energyStorage residualEnergyCapacity:vector ETV
attr interpolationmode linear
attr source residualEnergyCapacityChanged
attr title "Residual energy capacity, vector"
vector 13 Scenario.attacker_car[2].energyStorage powerConsumption:vector ETV
attr interpolationmode sample-hold
attr source powerConsumptionChanged
attr title "Power consumption, vector"
vector 14 Scenario.attacker_car[2].wlan[0].radio radioMode:vector ETV
attr interpolationmode sample-hold
attr source radioModeChanged
attr title "Radio mode, vector"
vector 15 Scenario.attacker_car[2].wlan[0].radio.energyConsumer powerConsumption:vector ETV
attr interpolationmode sample-hold
attr source powerConsumptionChanged
attr title "Power consumption, vector"
vector 16 Scenario.attacker_car[2].wlan[0].radio receptionState:vector ETV
attr interpolationmode sample-hold
attr source receptionStateChanged
attr title "Radio reception state, vector"
vector 17 Scenario.attacker_car[2].wlan[0].radio transmissionState:vector ETV
attr interpolationmode sample-hold
attr source transmissionStateChanged
attr title "Radio transmission state, vector"
vector 18 Scenario.normal_car[3].energyStorage residualEnergyCapacity:vector ETV
attr interpolationmode linear
attr source residualEnergyCapacityChanged
attr title "Residual energy capacity, vector"
vector 19 Scenario.normal_car[3].energyStorage powerConsumption:vector ETV
attr interpolationmode sample-hold
attr source powerConsumptionChanged
attr title "Power consumption, vector"
vector 20 Scenario.normal_car[3].wlan[0].radio radioMode:vector ETV
attr interpolationmode sample-hold
attr source radioModeChanged
attr title "Radio mode, vector"
vector 21 Scenario.normal_car[3].wlan[0].radio.energyConsumer powerConsumption:vector ETV
attr interpolationmode sample-hold
attr source powerConsumptionChanged
attr title "Power consumption, vector"
vector 22 Scenario.normal_car[3].wlan[0].radio receptionState:vector ETV
attr interpolationmode sample-hold
attr source receptionStateChanged
attr title "Radio reception state, vector"
vector 23 Scenario.normal_car[3].wlan[0].radio transmissionState:vector ETV
attr interpolationmode sample-hold
attr source transmissionStateChanged
attr title "Radio transmission state, vector"
vector 24 Scenario.normal_car[4].energyStorage residualEnergyCapacity:vector ETV
attr interpolationmode linear
attr source residualEnergyCapacityChanged
attr title "Residual energy capacity, vector"
vector 25 Scenario.normal_car[4].energyStorage powerConsumption:vector ETV
attr interpolationmode sample-hold
attr source powerConsumptionChanged
attr title "Power consumption, vector"
vector 26 Scenario.normal_car[4].wlan[0].radio radioMode:vector ETV
attr interpolationmode sample-hold
attr source radioModeChanged
attr title "Radio mode, vector"
vector 27 Scenario.normal_car[4].wlan[0].radio.energyConsumer powerConsumption:vector ETV
attr interpolationmode sample-hold
attr source powerConsumptionChanged
attr title "Power consumption, vector"
vector 28 Scenario.normal_car[4].wlan[0].radio receptionState:vector ETV
attr interpolationmode sample-hold
attr source receptionStateChanged
attr title "Radio reception state, vector"
vector 29 Scenario.normal_car[4].wlan[0].radio transmissionState:vector ETV
attr interpolationmode sample-hold
attr source transmissionStateChanged
attr title "Radio transmission state, vector"
vector 30 Scenario.normal_car[5].energyStorage residualEnergyCapacity:vector ETV
attr interpolationmode linear
attr source residualEnergyCapacityChanged
attr title "Residual energy capacity, vector"
vector 31 Scenario.normal_car[5].energyStorage powerConsumption:vector ETV
attr interpolationmode sample-hold
attr source powerConsumptionChanged
attr title "Power consumption, vector"
vector 32 Scenario.normal_car[5].wlan[0].radio radioMode:vector ETV
attr interpolationmode sample-hold
attr source radioModeChanged
attr title "Radio mode, vector"
vector 33 Scenario.normal_car[5].wlan[0].radio.energyConsumer powerConsumption:vector ETV
attr interpolationmode sample-hold
attr source powerConsumptionChanged
attr title "Power consumption, vector"
vector 34 Scenario.normal_car[5].wlan[0].radio receptionState:vector ETV
attr interpolationmode sample-hold
attr source receptionStateChanged
attr title "Radio reception state, vector"
vector 35 Scenario.normal_car[5].wlan[0].radio transmissionState:vector ETV
attr interpolationmode sample-hold
attr source transmissionStateChanged
attr title "Radio transmission state, vector"
vector 36 Scenario.normal_car[6].energyStorage residualEnergyCapacity:vector ETV
attr interpolationmode linear
attr source residualEnergyCapacityChanged
attr title "Residual energy capacity, vector"
vector 37 Scenario.normal_car[6].energyStorage powerConsumption:vector ETV
attr interpolationmode sample-hold
attr source powerConsumptionChanged
attr title "Power consumption, vector"
vector 38 Scenario.normal_car[6].wlan[0].radio radioMode:vector ETV
attr interpolationmode sample-hold
attr source radioModeChanged
attr title "Radio mode, vector"
vector 39 Scenario.normal_car[6].wlan[0].radio.energyConsumer powerConsumption:vector ETV
attr interpolationmode sample-hold
attr source powerConsumptionChanged
attr title "Power consumption, vector"
vector 40 Scenario.normal_car[6].wlan[0].radio receptionState:vector ETV
attr interpolationmode sample-hold
attr source receptionStateChanged
attr title "Radio reception state, vector"
vector 41 Scenario.normal_car[6].wlan[0].radio transmissionState:vector ETV
attr interpolationmode sample-hold
attr source transmissionStateChanged
attr title "Radio transmission state, vector"
vector 42 Scenario.normal_car[7].energyStorage residualEnergyCapacity:vector ETV
attr interpolationmode linear
attr source residualEnergyCapacityChanged
attr title "Residual energy capacity, vector"
vector 43 Scenario.normal_car[7].energyStorage powerConsumption:vector ETV
attr interpolationmode sample-hold
attr source powerConsumptionChanged
attr title "Power consumption, vector"
vector 44 Scenario.normal_car[7].wlan[0].radio radioMode:vector ETV
attr interpolationmode sample-hold
attr source radioModeChanged
attr title "Radio mode, vector"
vector 45 Scenario.normal_car[7].wlan[0].radio.energyConsumer powerConsumption:vector ETV
attr interpolationmode sample-hold
attr source powerConsumptionChanged
attr title "Power consumption, vector"
vector 46 Scenario.normal_car[7].wlan[0].radio receptionState:vector ETV
attr interpolationmode sample-hold
attr source receptionStateChanged
attr title "Radio reception state, vector"
vector 47 Scenario.normal_car[7].wlan[0].radio transmissionState:vector ETV
attr interpolationmode sample-hold
attr source transmissionStateChanged
attr title "Radio transmission state, vector"
vector 48 Scenario.attacker_car[2].ipv4.arp arpRequestSent:vector(packetBytes) ETV
attr source arpRequestSent
attr title "ARP request sent, vector(packetBytes)"
vector 49 Scenario.attacker_car[2].wlan[0].mac rcvdPkFromHl:vector(packetBytes) ETV
attr interpolationmode none
attr source packetReceivedFromUpper
attr title "packets received from higher layer, vector(packetBytes)"
vector 50 Scenario.attacker_car[2].wlan[0].mac.queue packetPushed:vector(packetBytes) ETV
attr interpolationmode none
attr title "packet pushed, vector(packetBytes)"
vector 51 Scenario.attacker_car[2].wlan[0].mac.queue queueLength:vector ETV
attr interpolationmode sample-hold
attr source "count(packetPushed) - count(packetPopped) - count(packetRemoved) - count(packetDropped)"
attr title "queue length, vector"
vector 52 Scenario.attacker_car[2].wlan[0].mac.queue packetPopped:vector(packetBytes) ETV
attr interpolationmode none
attr title "packet popped, vector(packetBytes)"
vector 53 Scenario.attacker_car[2].wlan[0].mac.queue queueingTime:vector ETV
attr interpolationmode none
attr source queueingTime(packetPopped)
attr title "queueing times, vector"
attr unit s
vector 54 Scenario.attacker_car[2].wlan[0].mac sentDownPk:vector(packetBytes) ETV
attr interpolationmode none
attr source packetSentToLower
attr title "packets sent to lower layer, vector(packetBytes)"
vector 55 Scenario.normal_car[4].wlan[0].mac rcvdPkFromLl:vector(packetBytes) ETV
attr interpolationmode none
attr source packetReceivedFromLower
attr title "packets received from lower layer, vector(packetBytes)"
vector 56 Scenario.normal_car[4].wlan[0].mac passedUpPk:vector(packetBytes) ETV
attr interpolationmode none
attr source packetSentToUpper
attr title "packets passed to higher layer, vector(packetBytes)"
vector 57 Scenario.normal_car[1].wlan[0].mac rcvdPkFromLl:vector(packetBytes) ETV
attr interpolationmode none
attr source packetReceivedFromLower
attr title "packets received from lower layer, vector(packetBytes)"
vector 58 Scenario.normal_car[1].wlan[0].mac passedUpPk:vector(packetBytes) ETV
attr interpolationmode none
attr source packetSentToUpper
attr title "packets passed to higher layer, vector(packetBytes)"
vector 59 Scenario.normal_car[1].ipv4.arp arpReplySent:vector(packetBytes) ETV
attr source arpReplySent
attr title "ARP replies sent, vector(packetBytes)"
vector 60 Scenario.normal_car[1].wlan[0].mac rcvdPkFromHl:vector(packetBytes) ETV
attr interpolationmode none
attr source packetReceivedFromUpper
attr title "packets received from higher layer, vector(packetBytes)"
vector 61 Scenario.normal_car[1].wlan[0].mac.queue packetPushed:vector(packetBytes) ETV
attr interpolationmode none
attr title "packet pushed, vector(packetBytes)"
vector 62 Scenario.normal_car[1].wlan[0].mac.queue queueLength:vector ETV
attr interpolationmode sample-hold
attr source "count(packetPushed) - count(packetPopped) - count(packetRemoved) - count(packetDropped)"
attr title "queue length, vector"
vector 63 Scenario.normal_car[1].wlan[0].mac.queue packetPopped:vector(packetBytes) ETV
attr interpolationmode none
attr title "packet popped, vector(packetBytes)"
vector 64 Scenario.normal_car[1].wlan[0].mac.queue queueingTime:vector ETV
attr interpolationmode none
attr source queueingTime(packetPopped)
attr title "queueing times, vector"
attr unit s
vector 65 Scenario.normal_car[1].wlan[0].mac sentDownPk:vector(packetBytes) ETV
attr interpolationmode none
attr source packetSentToLower
attr title "packets sent to lower layer, vector(packetBytes)"
vector 66 Scenario.normal_car[6].wlan[0].mac rcvdPkFromLl:vector(packetBytes) ETV
attr interpolationmode none
attr source packetReceivedFromLower
attr title "packets received from lower layer, vector(packetBytes)"
vector 67 Scenario.normal_car[6].wlan[0].mac passedUpPk:vector(packetBytes) ETV
attr interpolationmode none
attr source packetSentToUpper
attr title "packets passed to higher layer, vector(packetBytes)"
vector 68 Scenario.attacker_car[2].wlan[0].mac rcvdPkFromLl:vector(packetBytes) ETV
attr interpolationmode none
attr source packetReceivedFromLower
attr title "packets received from lower layer, vector(packetBytes)"
vector 69 Scenario.attacker_car[2].wlan[0].mac passedUpPk:vector(packetBytes) ETV
attr interpolationmode none
attr source packetSentToUpper
attr title "packets passed to higher layer, vector(packetBytes)"
vector 70 Scenario.normal_car[4].wlan[0].mac packetDropNotAddressedToUs:vector(packetBytes) ETV
attr interpolationmode none
attr source packetDropReasonIsNotAddressedToUs(packetDropped)
attr title "packet drop: not addressed to us, vector(packetBytes)"
vector 71 Scenario.normal_car[4].ipv4.arp arpReplySent:vector(packetBytes) ETV
attr source arpReplySent
attr title "ARP replies sent, vector(packetBytes)"
vector 72 Scenario.normal_car[4].wlan[0].mac rcvdPkFromHl:vector(packetBytes) ETV
attr interpolationmode none
attr source packetReceivedFromUpper
attr title "packets received from higher layer, vector(packetBytes)"
vector 73 Scenario.normal_car[4].wlan[0].mac.queue packetPushed:vector(packetBytes) ETV
attr interpolationmode none
attr title "packet pushed, vector(packetBytes)"
vector 74 Scenario.normal_car[4].wlan[0].mac.queue queueLength:vector ETV
attr interpolationmode sample-hold
attr source "count(packetPushed) - count(packetPopped) - count(packetRemoved) - count(packetDropped)"
attr title "queue length, vector"
vector 75 Scenario.normal_car[4].wlan[0].mac.queue packetPopped:vector(packetBytes) ETV
attr interpolationmode none
attr title "packet popped, vector(packetBytes)"
vector 76 Scenario.normal_car[4].wlan[0].mac.queue queueingTime:vector ETV
attr interpolationmode none
attr source queueingTime(packetPopped)
attr title "queueing times, vector"
attr unit s
vector 77 Scenario.normal_car[4].wlan[0].mac sentDownPk:vector(packetBytes) ETV
attr interpolationmode none
attr source packetSentToLower
attr title "packets sent to lower layer, vector(packetBytes)"
vector 78 Scenario.normal_car[6].wlan[0].mac packetDropNotAddressedToUs:vector(packetBytes) ETV
attr interpolationmode none
attr source packetDropReasonIsNotAddressedToUs(packetDropped)
attr title "packet drop: not addressed to us, vector(packetBytes)"
vector 79 Scenario.normal_car[1].wlan[0].mac packetDropNotAddressedToUs:vector(packetBytes) ETV
attr interpolationmode none
attr source packetDropReasonIsNotAddressedToUs(packetDropped)
attr title "packet drop: not addressed to us, vector(packetBytes)"
vector 80 Scenario.attacker_car[2].ipv4.arp arpReplySent:vector(packetBytes) ETV
attr source arpReplySent
attr title "ARP replies sent, vector(packetBytes)"
vector 81 Scenario.normal_car[8].energyStorage residualEnergyCapacity:vector ETV
attr interpolationmode linear
attr source residualEnergyCapacityChanged
attr title "Residual energy capacity, vector"
vector 82 Scenario.normal_car[8].energyStorage powerConsumption:vector ETV
attr interpolationmode sample-hold
attr source powerConsumptionChanged
attr title "Power consumption, vector"
vector 83 Scenario.normal_car[8].wlan[0].radio radioMode:vector ETV
attr interpolationmode sample-hold
attr source radioModeChanged
attr title "Radio mode, vector"
vector 84 Scenario.normal_car[8].wlan[0].radio.energyConsumer powerConsumption:vector ETV
attr interpolationmode sample-hold
attr source powerConsumptionChanged
attr title "Power consumption, vector"
vector 85 Scenario.normal_car[8].wlan[0].radio receptionState:vector ETV
attr interpolationmode sample-hold
attr source receptionStateChanged
attr title "Radio reception state, vector"
vector 86 Scenario.normal_car[8].wlan[0].radio transmissionState:vector ETV
attr interpolationmode sample-hold
attr source transmissionStateChanged
attr title "Radio transmission state, vector"
vector 87 Scenario.normal_car[9].energyStorage residualEnergyCapacity:vector ETV
attr interpolationmode linear
attr source residualEnergyCapacityChanged
attr title "Residual energy capacity, vector"
vector 88 Scenario.normal_car[9].energyStorage powerConsumption:vector ETV
attr interpolationmode sample-hold
attr source powerConsumptionChanged
attr title "Power consumption, vector"
vector 89 Scenario.normal_car[9].wlan[0].radio radioMode:vector ETV
attr interpolationmode sample-hold
attr source radioModeChanged
attr title "Radio mode, vector"
vector 90 Scenario.normal_car[9].wlan[0].radio.energyConsumer powerConsumption:vector ETV
attr interpolationmode sample-hold
attr source powerConsumptionChanged
attr title "Power consumption, vector"
vector 91 Scenario.normal_car[9].wlan[0].radio receptionState:vector ETV
attr interpolationmode sample-hold
attr source receptionStateChanged
attr title "Radio reception state, vector"
vector 92 Scenario.normal_car[9].wlan[0].radio transmissionState:vector ETV
attr interpolationmode sample-hold
attr source transmissionStateChanged
attr title "Radio transmission state, vector"
vector 93 Scenario.normal_car[10].energyStorage residualEnergyCapacity:vector ETV
attr interpolationmode linear
attr source residualEnergyCapacityChanged
attr title "Residual energy capacity, vector"
vector 94 Scenario.normal_car[10].energyStorage powerConsumption:vector ETV
attr interpolationmode sample-hold
attr source powerConsumptionChanged
attr title "Power consumption, vector"
vector 95 Scenario.normal_car[10].wlan[0].radio radioMode:vector ETV
attr interpolationmode sample-hold
attr source radioModeChanged
attr title "Radio mode, vector"
vector 96 Scenario.normal_car[10].wlan[0].radio.energyConsumer powerConsumption:vector ETV
attr interpolationmode sample-hold
attr source powerConsumptionChanged
attr title "Power consumption, vector"
vector 97 Scenario.normal_car[10].wlan[0].radio receptionState:vector ETV
attr interpolationmode sample-hold
attr source receptionStateChanged
attr title "Radio reception state, vector"
vector 98 Scenario.normal_car[10].wlan[0].radio transmissionState:vector ETV
attr interpolationmode sample-hold
attr source transmissionStateChanged
attr title "Radio transmission state, vector"
vector 99 Scenario.normal_car[11].energyStorage residualEnergyCapacity:vector ETV
attr interpolationmode linear
attr source residualEnergyCapacityChanged
attr title "Residual energy capacity, vector"
vector 100 Scenario.normal_car[11].energyStorage powerConsumption:vector ETV
attr interpolationmode sample-hold
attr source powerConsumptionChanged
attr title "Power consumption, vector"
vector 101 Scenario.normal_car[11].wlan[0].radio radioMode:vector ETV
attr interpolationmode sample-hold
attr source radioModeChanged
attr title "Radio mode, vector"
vector 102 Scenario.normal_car[11].wlan[0].radio.energyConsumer powerConsumption:vector ETV
attr interpolationmode sample-hold
attr source powerConsumptionChanged
attr title "Power consumption, vector"
vector 103 Scenario.normal_car[11].wlan[0].radio receptionState:vector ETV
attr interpolationmode sample-hold
attr source receptionStateChanged
attr title "Radio reception state, vector"
vector 104 Scenario.normal_car[11].wlan[0].radio transmissionState:vector ETV
attr interpolationmode sample-hold
attr source transmissionStateChanged
attr title "Radio transmission state, vector"
vector 105 Scenario.normal_car[1].app[0] packetSent:vector(packetBytes) ETV
attr interpolationmode none
attr source packetSent
attr title "packets sent, vector(packetBytes)"
vector 106 Scenario.normal_car[1].udp packetSent:vector(packetBytes) ETV
attr interpolationmode none
attr source packetSent
attr title "packets sent, vector(packetBytes)"
vector 107 Scenario.attacker_car[2].udp packetReceived:vector(packetBytes) ETV
attr interpolationmode none
attr source packetReceived
attr title "packets received, vector(packetBytes)"
vector 108 Scenario.attacker_car[2].udp passedUpPk:vector(count) ETV
attr interpolationmode none
attr source packetSentToUpper
attr title "packets passed up, vector(count)"
vector 109 Scenario.normal_car[4].udp packetReceived:vector(packetBytes) ETV
attr interpolationmode none
attr source packetReceived
attr title "packets received, vector(packetBytes)"
vector 110 Scenario.normal_car[4].udp passedUpPk:vector(count) ETV
attr interpolationmode none
attr source packetSentToUpper
attr title "packets passed up, vector(count)"
vector 111 Scenario.normal_car[4].udp packetSent:vector(packetBytes) ETV
attr interpolationmode none
attr source packetSent
attr title "packets sent, vector(packetBytes)"
vector 112 Scenario.normal_car[8].wlan[0].mac rcvdPkFromLl:vector(packetBytes) ETV
attr interpolationmode none
attr source packetReceivedFromLower
attr title "packets received from lower layer, vector(packetBytes)"
vector 113 Scenario.normal_car[8].wlan[0].mac packetDropNotAddressedToUs:vector(packetBytes) ETV
attr interpolationmode none
attr source packetDropReasonIsNotAddressedToUs(packetDropped)
attr title "packet drop: not addressed to us, vector(packetBytes)"
vector 114 Scenario.normal_car[1].udp packetReceived:vector(packetBytes) ETV
attr interpolationmode none
attr source packetReceived
attr title "packets received, vector(packetBytes)"
vector 115 Scenario.normal_car[1].udp passedUpPk:vector(count) ETV
attr interpolationmode none
attr source packetSentToUpper
attr title "packets passed up, vector(count)"
vector 116 Scenario.attacker_car[2].udp packetSent:vector(packetBytes) ETV
attr interpolationmode none
attr source packetSent
attr title "packets sent, vector(packetBytes)"
vector 117 Scenario.normal_car[6].udp packetReceived:vector(packetBytes) ETV
attr interpolationmode none
attr source packetReceived
attr title "packets received, vector(packetBytes)"
vector 118 Scenario.normal_car[6].udp passedUpPk:vector(count) ETV
attr interpolationmode none
attr source packetSentToUpper
attr title "packets passed up, vector(count)"
vector 119 Scenario.normal_car[6].udp packetSent:vector(packetBytes) ETV
attr interpolationmode none
attr source packetSent
attr title "packets sent, vector(packetBytes)"
vector 120 Scenario.normal_car[6].wlan[0].mac rcvdPkFromHl:vector(packetBytes) ETV
attr interpolationmode none
attr source packetReceivedFromUpper
attr title "packets received from higher layer, vector(packetBytes)"
vector 121 Scenario.normal_car[6].wlan[0].mac.queue packetPushed:vector(packetBytes) ETV
attr interpolationmode none
attr title "packet pushed, vector(packetBytes)"
vector 122 Scenario.normal_car[6].wlan[0].mac.queue queueLength:vector ETV
attr interpolationmode sample-hold
attr source "count(packetPushed) - count(packetPopped) - count(packetRemoved) - count(packetDropped)"
attr title "queue length, vector"
vector 123 Scenario.normal_car[6].wlan[0].mac.queue packetPopped:vector(packetBytes) ETV
attr interpolationmode none
attr title "packet popped, vector(packetBytes)"
vector 124 Scenario.normal_car[6].wlan[0].mac.queue queueingTime:vector ETV
attr interpolationmode none
attr source queueingTime(packetPopped)
attr title "queueing times, vector"
attr unit s
vector 125 Scenario.normal_car[6].wlan[0].mac sentDownPk:vector(packetBytes) ETV
attr interpolationmode none
attr source packetSentToLower
attr title "packets sent to lower layer, vector(packetBytes)"
vector 126 Scenario.normal_car[8].wlan[0].mac passedUpPk:vector(packetBytes) ETV
attr interpolationmode none
attr source packetSentToUpper
attr title "packets passed to higher layer, vector(packetBytes)"
vector 127 Scenario.normal_car[8].udp packetReceived:vector(packetBytes) ETV
attr interpolationmode none
attr source packetReceived
attr title "packets received, vector(packetBytes)"
vector 128 Scenario.normal_car[8].udp passedUpPk:vector(count) ETV
attr interpolationmode none
attr source packetSentToUpper
attr title "packets passed up, vector(count)"
vector 129 Scenario.normal_car[10].wlan[0].mac rcvdPkFromLl:vector(packetBytes) ETV
attr interpolationmode none
attr source packetReceivedFromLower
attr title "packets received from lower layer, vector(packetBytes)"
vector 130 Scenario.normal_car[10].wlan[0].mac passedUpPk:vector(packetBytes) ETV
attr interpolationmode none
attr source packetSentToUpper
attr title "packets passed to higher layer, vector(packetBytes)"
vector 131 Scenario.normal_car[10].udp packetReceived:vector(packetBytes) ETV
attr interpolationmode none
attr source packetReceived
attr title "packets received, vector(packetBytes)"
vector 132 Scenario.normal_car[10].udp passedUpPk:vector(count) ETV
attr interpolationmode none
attr source packetSentToUpper
attr title "packets passed up, vector(count)"
vector 133 Scenario.normal_car[8].udp packetSent:vector(packetBytes) ETV
attr interpolationmode none
attr source packetSent
attr title "packets sent, vector(packetBytes)"
vector 134 Scenario.normal_car[8].ipv4.arp arpRequestSent:vector(packetBytes) ETV
attr source arpRequestSent
attr title "ARP request sent, vector(packetBytes)"
vector 135 Scenario.normal_car[8].wlan[0].mac rcvdPkFromHl:vector(packetBytes) ETV
attr interpolationmode none
attr source packetReceivedFromUpper
attr title "packets received from higher layer, vector(packetBytes)"
vector 136 Scenario.normal_car[8].wlan[0].mac.queue packetPushed:vector(packetBytes) ETV
attr interpolationmode none
attr title "packet pushed, vector(packetBytes)"
vector 137 Scenario.normal_car[8].wlan[0].mac.queue queueLength:vector ETV
attr interpolationmode sample-hold
attr source "count(packetPushed) - count(packetPopped) - count(packetRemoved) - count(packetDropped)"
attr title "queue length, vector"
vector 138 Scenario.normal_car[8].wlan[0].mac.queue packetPopped:vector(packetBytes) ETV
attr interpolationmode none
attr title "packet popped, vector(packetBytes)"
vector 139 Scenario.normal_car[8].wlan[0].mac.queue queueingTime:vector ETV
attr interpolationmode none
attr source queueingTime(packetPopped)
attr title "queueing times, vector"
attr unit s
vector 140 Scenario.normal_car[8].wlan[0].mac sentDownPk:vector(packetBytes) ETV
attr interpolationmode none
attr source packetSentToLower
attr title "packets sent to lower layer, vector(packetBytes)"
vector 141 Scenario.normal_car[4].app[0] packetReceived:vector(packetBytes) ETV
attr interpolationmode none
attr source packetReceived
attr title "packets received, vector(packetBytes)"
vector 142 Scenario.normal_car[4].app[0] throughput:vector ETV
attr source throughput(packetReceived)
attr title "throughput, vector"
attr unit bps
vector 143 Scenario.normal_car[4].app[0] endToEndDelay:vector ETV
attr interpolationmode none
attr source dataAge(packetReceived)
attr title "end-to-end delay, vector"
attr unit s
vector 144 Scenario.normal_car[4].app[0] rcvdPkSeqNo:vector ETV
attr interpolationmode none
attr source appPkSeqNo(packetReceived)
attr title "received packet sequence number, vector"
vector 145 Scenario.attacker_car[2].wlan[0].mac packetDropNotAddressedToUs:vector(packetBytes) ETV
attr interpolationmode none
attr source packetDropReasonIsNotAddressedToUs(packetDropped)
attr title "packet drop: not addressed to us, vector(packetBytes)"
vector 146 Scenario.normal_car[10].wlan[0].mac packetDropNotAddressedToUs:vector(packetBytes) ETV
attr interpolationmode none
attr source packetDropReasonIsNotAddressedToUs(packetDropped)
attr title "packet drop: not addressed to us, vector(packetBytes)"
vector 147 Scenario.normal_car[12].energyStorage residualEnergyCapacity:vector ETV
attr interpolationmode linear
attr source residualEnergyCapacityChanged
attr title "Residual energy capacity, vector"
vector 148 Scenario.normal_car[12].energyStorage powerConsumption:vector ETV
attr interpolationmode sample-hold
attr source powerConsumptionChanged
attr title "Power consumption, vector"
vector 149 Scenario.normal_car[12].wlan[0].radio radioMode:vector ETV
attr interpolationmode sample-hold
attr source radioModeChanged
attr title "Radio mode, vector"
vector 150 Scenario.normal_car[12].wlan[0].radio.energyConsumer powerConsumption:vector ETV
attr interpolationmode sample-hold
attr source powerConsumptionChanged
attr title "Power consumption, vector"
vector 151 Scenario.normal_car[12].wlan[0].radio receptionState:vector ETV
attr interpolationmode sample-hold
attr source receptionStateChanged
attr title "Radio reception state, vector"
vector 152 Scenario.normal_car[12].wlan[0].radio transmissionState:vector ETV
attr interpolationmode sample-hold
attr source transmissionStateChanged
attr title "Radio transmission state, vector"
vector 153 Scenario.normal_car[13].energyStorage residualEnergyCapacity:vector ETV
attr interpolationmode linear
attr source residualEnergyCapacityChanged
attr title "Residual energy capacity, vector"
vector 154 Scenario.normal_car[13].energyStorage powerConsumption:vector ETV
attr interpolationmode sample-hold
attr source powerConsumptionChanged
attr title "Power consumption, vector"
vector 155 Scenario.normal_car[13].wlan[0].radio radioMode:vector ETV
attr interpolationmode sample-hold
attr source radioModeChanged
attr title "Radio mode, vector"
vector 156 Scenario.normal_car[13].wlan[0].radio.energyConsumer powerConsumption:vector ETV
attr interpolationmode sample-hold
attr source powerConsumptionChanged
attr title "Power consumption, vector"
vector 157 Scenario.normal_car[13].wlan[0].radio receptionState:vector ETV
attr interpolationmode sample-hold
attr source receptionStateChanged
attr title "Radio reception state, vector"
vector 158 Scenario.normal_car[13].wlan[0].radio transmissionState:vector ETV
attr interpolationmode sample-hold
attr source transmissionStateChanged
attr title "Radio transmission state, vector"
vector 159 Scenario.normal_car[14].energyStorage residualEnergyCapacity:vector ETV
attr interpolationmode linear
attr source residualEnergyCapacityChanged
attr title "Residual energy capacity, vector"
vector 160 Scenario.normal_car[14].energyStorage powerConsumption:vector ETV
attr interpolationmode sample-hold
attr source powerConsumptionChanged
attr title "Power consumption, vector"
vector 161 Scenario.normal_car[14].wlan[0].radio radioMode:vector ETV
attr interpolationmode sample-hold
attr source radioModeChanged
attr title "Radio mode, vector"
vector 162 Scenario.normal_car[14].wlan[0].radio.energyConsumer powerConsumption:vector ETV
attr interpolationmode sample-hold
attr source powerConsumptionChanged
attr title "Power consumption, vector"
vector 163 Scenario.normal_car[14].wlan[0].radio receptionState:vector ETV
attr interpolationmode sample-hold
attr source receptionStateChanged
attr title "Radio reception state, vector"
vector 164 Scenario.normal_car[14].wlan[0].radio transmissionState:vector ETV
attr interpolationmode sample-hold
attr source transmissionStateChanged
attr title "Radio transmission state, vector"
vector 165 Scenario.normal_car[0].wlan[0].mac rcvdPkFromLl:vector(packetBytes) ETV
attr interpolationmode none
attr source packetReceivedFromLower
attr title "packets received from lower layer, vector(packetBytes)"
vector 166 Scenario.normal_car[0].wlan[0].mac packetDropNotAddressedToUs:vector(packetBytes) ETV
attr interpolationmode none
attr source packetDropReasonIsNotAddressedToUs(packetDropped)
attr title "packet drop: not addressed to us, vector(packetBytes)"
vector 167 Scenario.normal_car[3].wlan[0].mac rcvdPkFromLl:vector(packetBytes) ETV
attr interpolationmode none
attr source packetReceivedFromLower
attr title "packets received from lower layer, vector(packetBytes)"
vector 168 Scenario.normal_car[3].wlan[0].mac packetDropNotAddressedToUs:vector(packetBytes) ETV
attr interpolationmode none
attr source packetDropReasonIsNotAddressedToUs(packetDropped)
attr title "packet drop: not addressed to us, vector(packetBytes)"
vector 169 Scenario.normal_car[5].wlan[0].mac rcvdPkFromLl:vector(packetBytes) ETV
attr interpolationmode none
attr source packetReceivedFromLower
attr title "packets received from lower layer, vector(packetBytes)"
vector 170 Scenario.normal_car[5].wlan[0].mac packetDropNotAddressedToUs:vector(packetBytes) ETV
attr interpolationmode none
attr source packetDropReasonIsNotAddressedToUs(packetDropped)
attr title "packet drop: not addressed to us, vector(packetBytes)"
vector 171 Scenario.normal_car[7].wlan[0].mac rcvdPkFromLl:vector(packetBytes) ETV
attr interpolationmode none
attr source packetReceivedFromLower
attr title "packets received from lower layer, vector(packetBytes)"
vector 172 Scenario.normal_car[7].wlan[0].mac packetDropNotAddressedToUs:vector(packetBytes) ETV
attr interpolationmode none
attr source packetDropReasonIsNotAddressedToUs(packetDropped)
attr title "packet drop: not addressed to us, vector(packetBytes)"
vector 173 Scenario.normal_car[9].wlan[0].mac rcvdPkFromLl:vector(packetBytes) ETV
attr interpolationmode none
attr source packetReceivedFromLower
attr title "packets received from lower layer, vector(packetBytes)"
vector 174 Scenario.normal_car[9].wlan[0].mac packetDropNotAddressedToUs:vector(packetBytes) ETV
attr interpolationmode none
attr source packetDropReasonIsNotAddressedToUs(packetDropped)
attr title "packet drop: not addressed to us, vector(packetBytes)"
vector 175 Scenario.normal_car[11].wlan[0].mac rcvdPkFromLl:vector(packetBytes) ETV
attr interpolationmode none
attr source packetReceivedFromLower
attr title "packets received from lower layer, vector(packetBytes)"
vector 176 Scenario.normal_car[11].wlan[0].mac packetDropNotAddressedToUs:vector(packetBytes) ETV
attr interpolationmode none
attr source packetDropReasonIsNotAddressedToUs(packetDropped)
attr title "packet drop: not addressed to us, vector(packetBytes)"
vector 177 Scenario.normal_car[12].wlan[0].mac rcvdPkFromLl:vector(packetBytes) ETV
attr interpolationmode none
attr source packetReceivedFromLower
attr title "packets received from lower layer, vector(packetBytes)"
vector 178 Scenario.normal_car[12].wlan[0].mac packetDropNotAddressedToUs:vector(packetBytes) ETV
attr interpolationmode none
attr source packetDropReasonIsNotAddressedToUs(packetDropped)
attr title "packet drop: not addressed to us, vector(packetBytes)"
vector 179 Scenario.normal_car[0].app[0] throughput:vector ETV
attr source throughput(packetReceived)
attr title "throughput, vector"
attr unit bps
vector 180 Scenario.normal_car[1].app[0] throughput:vector ETV
attr source throughput(packetReceived)
attr title "throughput, vector"
attr unit bps
vector 181 Scenario.attacker_car[2].app[0] throughput:vector ETV
attr source throughput(packetReceived)
attr title "throughput, vector"
attr unit bps
vector 182 Scenario.normal_car[3].app[0] throughput:vector ETV
attr source throughput(packetReceived)
attr title "throughput, vector"
attr unit bps
vector 183 Scenario.normal_car[5].app[0] throughput:vector ETV
attr source throughput(packetReceived)
attr title "throughput, vector"
attr unit bps
vector 184 Scenario.normal_car[6].app[0] throughput:vector ETV
attr source throughput(packetReceived)
attr title "throughput, vector"
attr unit bps
vector 185 Scenario.normal_car[7].app[0] throughput:vector ETV
attr source throughput(packetReceived)
attr title "throughput, vector"
attr unit bps
vector 186 Scenario.normal_car[8].app[0] throughput:vector ETV
attr source throughput(packetReceived)
attr title "throughput, vector"
attr unit bps
vector 187 Scenario.normal_car[9].app[0] throughput:vector ETV
attr source throughput(packetReceived)
attr title "throughput, vector"
attr unit bps
vector 188 Scenario.normal_car[10].app[0] throughput:vector ETV
attr source throughput(packetReceived)
attr title "throughput, vector"
attr unit bps
vector 189 Scenario.normal_car[11].app[0] throughput:vector ETV
attr source throughput(packetReceived)
attr title "throughput, vector"
attr unit bps
vector 190 Scenario.normal_car[12].app[0] throughput:vector ETV
attr source throughput(packetReceived)
attr title "throughput, vector"
attr unit bps
vector 191 Scenario.normal_car[13].app[0] throughput:vector ETV
attr source throughput(packetReceived)
attr title "throughput, vector"
attr unit bps
vector 192 Scenario.normal_car[14].app[0] throughput:vector ETV
attr source throughput(packetReceived)
attr title "throughput, vector"
attr unit bps
0	2	0.1	0
0	2101	27.000000325684	-0.10760000130274
0	2123	27.004348325684	-0.10765217730274
0	2129	27.004348557789	-0.10765217823116
0	2206	28.000000240876	-0.1116347849635
0	2228	28.004348240876	-0.1116869609635
0	2235	28.004348498604	-0.11168696199442
0	2265	28.008696498604	-0.11173913799442
0	2309	29.00000015152	-0.11570435260608
0	2324	29.00434815152	-0.11575652860608
0	2340	29.004348446254	-0.11575652978502
0	2371	29.008696446254	-0.11580870578502
0	2408	29.400000261532	-0.11737392104613
0	2428	29.400252261532	-0.11737694504613
0	2435	29.400252421588	-0.11737694568635
0	2463	29.400504421588	-0.11737996968635
0	2499	30.00000005978	-0.11977795223912
0	2514	30.00434805978	-0.11983012823912
0	2531	30.004348381055	-0.11983012952422
0	2559	30.008696381055	-0.11988230552422
0	2610	31.000000035772	-0.12384752014309
0	2625	31.004348035772	-0.12389969614309
0	2639	31.0043483066	-0.1238996972264
0	2668	31.0086963066	-0.1239518732264
0	2722	32.000000127564	-0.12791708851026
0	2738	32.004348127564	-0.12796926451026
0	2748	32.004348222215	-0.12796926488886
0	2776	32.008696222215	-0.12802144088886
0	2837	33.000000218744	-0.13198665687498
0	2858	33.004348218744	-0.13203883287498
0	2860	33.004348224229	-0.13203883289692
0	2887	33.008696224229	-0.13209100889692
0	2947	34.000000306561	-0.13605622522624
0	2971	34.004348306561	-0.13610840122624
0	2973	34.004348312894	-0.13610840125158
0	3000	34.008696312894	-0.13616057725158
0	3040	34.400000171225	-0.1377257926849
0	3056	34.400252171225	-0.1377288166849
0	3071	34.400252347213	-0.13772881738885
0	3095	34.400504347213	-0.13773184138885
0	3145	35.000000391609	-0.14012982556644
0	3173	35.004348391609	-0.14018200156644
0	3175	35.004348396613	-0.14018200158645
0	3204	35.008696396613	-0.14023417758645
0	3257	36.000000467037	-0.14419939386815
0	3289	36.004348468371	-0.14421678587348
0	3318	36.008696468371	-0.14426896187348
0	3373	37.000000534519	-0.14823417813808
0	3405	37.004348534671	-0.14825157013868
0	3434	37.008696534671	-0.14830374613868
0	3483	38.000000589374	-0.1522689623575
1	2	0.1	0
1	2	0.1	0
1	2	0.1	0
1	2	0.1	0
1	2	0.1	0.002
1	2	0.1	0.004
1	2101	27.000000325684	0.002
1	2101	27.000000325684	0.012
1	2123	27.004348325684	0.004
1	2129	27.004348557789	0.004
1	2206	28.000000240876	0.002
1	2206	28.000000240876	0.012
1	2228	28.004348240876	0.004
1	2235	28.004348498604	0.012
1	2265	28.008696498604	0.004
1	2309	29.00000015152	0.012
1	2324	29.00434815152	0.004
1	2340	29.004348446254	0.012
1	2371	29.008696446254	0.004
1	2408	29.400000261532	0.012
1	2428	29.400252261532	0.004
1	2435	29.400252421588	0.012
1	2463	29.400504421588	0.004
1	2499	30.00000005978	0.012
1	2514	30.00434805978	0.004
1	2531	30.004348381055	0.012
1	2559	30.008696381055	0.004
1	2610	31.000000035772	0.012
1	2625	31.004348035772	0.004
1	2639	31.0043483066	0.012
1	2668	31.0086963066	0.004
1	2722	32.000000127564	0.012
1	2738	32.004348127564	0.004
1	2748	32.004348222215	0.012
1	2776	32.008696222215	0.004
1	2837	33.000000218744	0.012
1	2858	33.004348218744	0.004
1	2860	33.004348224229	0.012
1	2887	33.008696224229	0.004
1	2947	34.000000306561	0.012
1	2971	34.004348306561	0.004
1	2973	34.004348312894	0.012
1	3000	34.008696312894	0.004
1	3040	34.400000171225	0.012
1	3056	34.400252171225	0.004
1	3071	34.400252347213	0.012
1	3095	34.400504347213	0.004
1	3145	35.000000391609	0.012
1	3173	35.004348391609	0.004
1	3175	35.004348396613	0.012
1	3204	35.008696396613	0.004
1	3257	36.000000467037	0.004
1	3289	36.004348468371	0.002
1	3289	36.004348468371	0.012
1	3318	36.008696468371	0.004
1	3373	37.000000534519	0.004
1	3405	37.004348534671	0.002
1	3405	37.004348534671	0.012
1	3434	37.008696534671	0.004
1	3483	38.000000589374	0.004
2	2	0.1	0
2	2	0.1	0
2	2	0.1	4
3	2	0.1	0
3	2	0.1	0
3	2	0.1	0
3	2	0.1	0.002
3	2	0.1	0.004
3	2101	27.000000325684	0.002
3	2101	27.000000325684	0.012
3	2123	27.004348325684	0.004
3	2129	27.004348557789	0.004
3	2206	28.000000240876	0.002
3	2206	28.000000240876	0.012
3	2228	28.004348240876	0.004
3	2235	28.004348498604	0.012
3	2265	28.008696498604	0.004
3	2309	29.00000015152	0.012
3	2324	29.00434815152	0.004
3	2340	29.004348446254	0.012
3	2371	29.008696446254	0.004
3	2408	29.400000261532	0.012
3	2428	29.400252261532	0.004
3	2435	29.400252421588	0.012
3	2463	29.400504421588	0.004
3	2499	30.00000005978	0.012
3	2514	30.00434805978	0.004
3	2531	30.004348381055	0.012
3	2559	30.008696381055	0.004
3	2610	31.000000035772	0.012
3	2625	31.004348035772	0.004
3	2639	31.0043483066	0.012
3	2668	31.0086963066	0.004
3	2722	32.000000127564	0.012
3	2738	32.004348127564	0.004
3	2748	32.004348222215	0.012
3	2776	32.008696222215	0.004
3	2837	33.000000218744	0.012
3	2858	33.004348218744	0.004
3	2860	33.004348224229	0.012
3	2887	33.008696224229	0.004
3	2947	34.000000306561	0.012
3	2971	34.004348306561	0.004
3	2973	34.004348312894	0.012
3	3000	34.008696312894	0.004
3	3040	34.400000171225	0.012
3	3056	34.400252171225	0.004
3	3071	34.400252347213	0.012
3	3095	34.400504347213	0.004
3	3145	35.000000391609	0.012
3	3173	35.004348391609	0.004
3	3175	35.004348396613	0.012
3	3204	35.008696396613	0.004
3	3257	36.000000467037	0.004
3	3289	36.004348468371	0.002
3	3289	36.004348468371	0.012
3	3318	36.008696468371	0.004
3	3373	37.000000534519	0.004
3	3405	37.004348534671	0.002
3	3405	37.004348534671	0.012
3	3434	37.008696534671	0.004
3	3483	38.000000589374	0.004
4	2	0.1	1
4	2101	27.000000325684	3
4	2123	27.004348325684	1
4	2206	28.000000240876	3
4	2228	28.004348240876	1
4	2235	28.004348498604	3
4	2265	28.008696498604	1
4	2309	29.00000015152	3
4	2324	29.00434815152	1
4	2340	29.004348446254	3
4	2371	29.008696446254	1
4	2408	29.400000261532	3
4	2428	29.400252261532	1
4	2435	29.400252421588	3
4	2463	29.400504421588	1
4	2499	30.00000005978	3
4	2514	30.00434805978	1
4	2531	30.004348381055	3
4	2559	30.008696381055	1
4	2610	31.000000035772	3
4	2625	31.004348035772	1
4	2639	31.0043483066	3
4	2668	31.0086963066	1
4	2722	32.000000127564	3
4	2738	32.004348127564	1
4	2748	32.004348222215	3
4	2776	32.008696222215	1
4	2837	33.000000218744	3
4	2858	33.004348218744	1
4	2860	33.004348224229	3
4	2887	33.008696224229	1
4	2947	34.000000306561	3
4	2971	34.004348306561	1
4	2973	34.004348312894	3
4	3000	34.008696312894	1
4	3040	34.400000171225	3
4	3056	34.400252171225	1
4	3071	34.400252347213	3
4	3095	34.400504347213	1
4	3145	35.000000391609	3
4	3173	35.004348391609	1
4	3175	35.004348396613	3
4	3204	35.008696396613	1
4	3289	36.004348468371	3
4	3318	36.008696468371	1
4	3405	37.004348534671	3
4	3434	37.008696534671	1
5	2	0.1	1
6	2	0.1	0
6	242	13.800000173209	-0.054800000692836
6	252	13.800252173209	-0.054803024692836
6	271	13.800504173209	-0.054828728692836
6	294	14.100000173325	-0.0560267126933
6	306	14.100252173325	-0.0560297366933
6	314	14.100252516156	-0.056029738064624
6	329	14.100504516156	-0.056032762064624
6	347	14.400000173393	-0.057230744693572
6	356	14.400252173393	-0.057233768693572
6	363	14.400252346786	-0.057233769387144
6	377	14.400504346786	-0.057236793387144
6	509	19.400000167518	-0.077234776670072
6	521	19.400252167518	-0.077237800670072
6	527	19.400252335036	-0.077237801340144
6	549	19.400504335036	-0.077240825340144
6	587	20.002964223082	-0.079650664892328
6	599	20.003312223082	-0.079686160892328
6	617	20.003312884132	-0.079686163536528
6	642	20.003644884132	-0.079690147536528
6	644	20.003644884134	-0.079690147536536
6	665	20.003976884134	-0.079694131536536
6	700	20.006888486371	-0.07999111496471
6	712	20.007236486371	-0.08002939496471
6	731	20.008324884134	-0.080140411536536
6	751	20.012546529318	-0.080157298117272
6	763	20.012894529318	-0.080161474117272
6	790	20.012894873906	-0.080161509265248
6	816	20.013226529318	-0.080197991360568
6	832	20.013226873906	-0.080197995495624
6	873	20.01590902938	-0.080216770583942
6	905	20.017574845782	-0.080228431298756
6	936	20.115951260278	-0.08062193695674
6	948	20.116315260278	-0.08062630495674
6	978	20.117184600656	-0.080629782318252
6	998	20.117516600656	-0.080633766318252
6	1039	21	-0.084163699915628
6	1051	21.004348	-0.084607195915628
6	1071	21.006466549412	-0.084615670113276
6	1083	21.006814549412	-0.084619846113276
6	1115	21.009933052008	-0.08463232012366
6	1159	21.013510522615	-0.084646630006088
6	1183	21.013858522615	-0.084650806006088
6	1188	21.013858522811	-0.084650806006872
6	1241	21.014190522811	-0.084654790006872
6	1254	21.014190867151	-0.084654791384232
6	1282	21.014522867151	-0.084658775384232
6	1284	21.014522867347	-0.084658775385016
6	1324	21.016046458665	-0.084677058480832
6	1360	21.016394458665	-0.084715338480832
6	1374	21.018870867347	-0.084745055385016
6	1425	22	-0.088669571915628
6	1437	22.004348	-0.089113067915628
6	1443	22.004348226052	-0.089113068819836
6	1466	22.008696226052	-0.089165244819836
6	1490	22.013859193374	-0.089185896689124
6	1513	22.014111193394	-0.089186904689204
6	1534	22.014363193394	-0.089189928689204
6	1547	22.014363897152	-0.089189931504236
6	1617	23	-0.093132475915628
6	1631	23.004348	-0.093575971915628
6	1637	23.00434820921	-0.093575972752468
6	1664	23.00869620921	-0.093628148752468
6	1713	24	-0.097593363915628
6	1727	24.004348	-0.098036859915628
6	1733	24.004348195558	-0.09803686069786
6	1761	24.008696195558	-0.09808903669786
6	1802	24.400000096178	-0.09965425230034
6	1816	24.400252096178	-0.09965727630034
6	1822	24.400252192356	-0.099657276685052
6	1848	24.400504192356	-0.099660300685052
6	1886	25	-0.10205828391563
6	1900	25.004348	-0.10250177991563
6	1906	25.004348204946	-0.10250178073541
6	1934	25.008696204946	-0.10255395673541
6	1990	26	-0.10651917191563
6	2004	26.004348	-0.10696266791563
6	2013	26.004348233222	-0.10696266884852
6	2043	26.008696233222	-0.10701484484852
6	2098	27	-0.11098005991563
6	2113	27.004348	-0.11142355591563
6	2122	27.004348240974	-0.11142355687952
6	2155	27.008696240974	-0.11147573287952
6	2203	28	-0.11544094791563
6	2218	28.004348	-0.11588444391563
6	2230	28.00434827753	-0.11588444502575
6	2261	28.00869627753	-0.11593662102575
6	2308	29	-0.11990183591563
6	2323	29.004348	-0.12034533191563
6	2334	29.004348311396	-0.12034533316121
6	2367	29.008696311396	-0.12039750916121
6	2406	29.400000160056	-0.12196272455585
6	2422	29.400252160056	-0.12196574855585
6	2431	29.400252320112	-0.12196574919608
6	2459	29.400504320112	-0.12196877319608
6	2498	30	-0.12436675591563
6	2513	30.004348	-0.12481025191563
6	2526	30.004348329552	-0.12481025323384
6	2557	30.008696329552	-0.12486242923384
6	2609	31	-0.12882764391563
6	2624	31.004348	-0.12927113991563
6	2640	31.004348342306	-0.12927114128485
6	2670	31.008696342306	-0.12932331728485
6	2720	32	-0.13328853191563
6	2735	32.004348	-0.13373202791563
6	2752	32.004348349776	-0.13373202931473
6	2783	32.008696349776	-0.13378420531473
6	2833	33	-0.13774941991563
6	2848	33.004348	-0.13819291591563
6	2867	33.00434835309	-0.13819291732799
6	2896	33.00869635309	-0.13824509332799
6	2942	34	-0.14221030791563
6	2957	34.004348	-0.14265380391563
6	2974	34.004348353116	-0.14265380532809
6	3002	34.008696353116	-0.14270598132809
6	3042	34.400000175988	-0.14427119661958
6	3060	34.400252175988	-0.14427422061958
6	3073	34.400252351976	-0.14427422132353
6	3099	34.400504351976	-0.14427724532353
6	3138	35	-0.14667522791563
6	3153	35.004348	-0.14711872391563
6	3169	35.00434835019	-0.14711872531639
6	3197	35.00869635019	-0.14717090131639
6	3249	36	-0.15113611591563
6	3264	36.004348	-0.15157961191563
6	3281	36.004348346058	-0.15157961329986
6	3309	36.008696346058	-0.15163178929986
6	3363	37	-0.15559700391563
6	3378	37.004348	-0.15604049991563
6	3394	37.004348345182	-0.15604050129636
6	3421	37.008696345182	-0.15609267729636
6	3473	38	-0.16005789191563
6	3488	38.004348	-0.16050138791563
6	3504	38.004348345802	-0.16050138929884
6	3532	38.008696345802	-0.16055356529884
6	3585	39	-0.16451877991563
6	3600	39.004348	-0.16496227591563
6	3617	39.004348349798	-0.16496227731482
6	3644	39.008696349798	-0.16501445331482
6	3682	39.400000175574	-0.16657966861792
6	3699	39.400252175574	-0.16658269261792
6	3711	39.400252351148	-0.16658269332022
6	3738	39.400504351148	-0.16658571732022
6	3778	40	-0.16898369991563
6	3793	40.004348	-0.16942719591563
6	3810	40.004348353126	-0.16942719732813
6	3838	40.008696353126	-0.16947937332813
6	3889	41	-0.17344458791563
6	3904	41.004348	-0.17388808391563
6	3919	41.004348354188	-0.17388808533238
6	3947	41.008696354188	-0.17394026133238
6	3998	42	-0.17790547591563
6	4013	42.004348	-0.17834897191563
6	4025	42.004348354252	-0.17834897333264
6	4055	42.008696354252	-0.17840114933264
6	4107	43	-0.18236636391563
6	4122	43.004348	-0.18280985991563
6	4135	43.004348354386	-0.18280986133317
6	4164	43.008696354386	-0.18286203733317
6	4214	44	-0.18682725191563
6	4229	44.004348	-0.18727074791563
6	4238	44.004348354332	-0.18727074933296
6	4268	44.008696354332	-0.18732292533296
6	4306	44.400000177203	-0.18888814062444
6	4322	44.400252177203	-0.18889116462444
6	4333	44.400252354406	-0.18889116533325
6	4359	44.400504354406	-0.18889418933325
6	4400	45	-0.19129217191563
6	4415	45.004348	-0.19173566791563
6	4425	45.004348354296	-0.19173566933281
6	4454	45.008696354296	-0.19178784533281
6	4505	46	-0.19575305991563
6	4520	46.004348	-0.19619655591563
6	4526	46.004348353854	-0.19619655733104
6	4556	46.008696353854	-0.19624873333104
6	4610	47	-0.20021394791563
6	4625	47.004348	-0.20065744391563
6	4632	47.004348353236	-0.20065744532857
6	4661	47.008696353236	-0.20070962132857
6	4713	48	-0.20467483591563
6	4728	48.004348	-0.20511833191563
6	4734	48.004348348094	-0.205118333308
6	4763	48.008696348094	-0.205170509308
6	4815	49	-0.20913572391563
6	4830	49.004348	-0.20957921991563
6	4836	49.004348342008	-0.20957922128366
6	4865	49.008696342008	-0.20963139728366
6	4901	49.400000170892	-0.2111966125992
6	4916	49.400252170892	-0.2111996365992
6	4922	49.400252341784	-0.21119963728276
6	4950	49.400504341784	-0.21120266128276
6	4989	50	-0.21360064391563
6	5004	50.004348	-0.21404413991563
6	5011	50.004348342042	-0.2140441412838
6	5040	50.008696342042	-0.2140963172838
6	5092	51	-0.21806153191563
6	5107	51.004348	-0.21850502791563
6	5113	51.004348349912	-0.21850502931528
6	5142	51.008696349912	-0.21855720531528
6	5193	52	-0.22252241991563
6	5208	52.004348	-0.22296591591563
6	5214	52.004348353868	-0.2229659173311
6	5243	52.008696353868	-0.2230180933311
6	5295	53	-0.22698330791563
6	5310	53.004348	-0.22742680391563
6	5317	53.004348354294	-0.2274268053328
6	5346	53.008696354294	-0.2274789813328
6	5397	54	-0.23144419591563
6	5412	54.004348	-0.23188769191563
6	5418	54.00434835428	-0.23188769333275
6	5447	54.00869635428	-0.23193986933275
6	5483	54.400000177125	-0.23350508462413
6	5498	54.400252177125	-0.23350810862413
6	5506	54.40025235425	-0.23350810933263
6	5532	54.40050435425	-0.23351113333263
6	5572	55	-0.23590911591563
6	5587	55.004348	-0.23635261191563
6	5594	55.004348354076	-0.23635261333193
6	5623	55.008696354076	-0.23640478933193
6	5674	56	-0.24037000391563
6	5689	56.004348	-0.24081349991563
6	5695	56.004348354004	-0.24081350133164
6	5724	56.008696354004	-0.24086567733164
6	5776	57	-0.24483089191563
6	5791	57.004348	-0.24527438791563
6	5798	57.00434835252	-0.24527438932571
6	5827	57.00869635252	-0.24532656532571
6	5878	58	-0.24929177991563
6	5893	58.004348	-0.24973527591563
6	5899	58.004348343946	-0.24973527729141
6	5928	58.008696343946	-0.24978745329141
6	5980	59	-0.25375266791563
6	5995	59.004348	-0.25419616391563
6	6001	59.00434833026	-0.25419616523667
6	6030	59.00869633026	-0.25424834123667
6	6066	59.40000016383	-0.25581355657095
6	6081	59.40025216383	-0.25581658057095
6	6087	59.40025232766	-0.25581658122627
6	6115	59.40050432766	-0.25581960522627
6	6154	60	-0.25821758791563
6	6169	60.004348	-0.25866108391563
6	6176	60.00434833259	-0.25866108524599
6	6205	60.00869633259	-0.25871326124599
7	2	0.1	0
7	2	0.1	0
7	2	0.1	0
7	2	0.1	0
7	2	0.1	0.002
7	2	0.1	0.004
7	242	13.800000173209	0.002
7	242	13.800000173209	0.012
7	252	13.800252173209	0.004
7	256	13.800252173209	0.002
7	256	13.800252173209	0.002
7	256	13.800252173209	0.102
7	271	13.800504173209	0.004
7	271	13.800504173209	0.004
7	294	14.100000173325	0.002
7	294	14.100000173325	0.012
7	306	14.100252173325	0.004
7	314	14.100252516156	0.012
7	329	14.100504516156	0.004
7	347	14.400000173393	0.012
7	356	14.400252173393	0.004
7	363	14.400252346786	0.012
7	377	14.400504346786	0.004
7	509	19.400000167518	0.012
7	521	19.400252167518	0.004
7	527	19.400252335036	0.012
7	549	19.400504335036	0.004
7	587	20.002964223082	0.002
7	587	20.002964223082	0.002
7	587	20.002964223082	0.102
7	599	20.003312223082	0.004
7	599	20.003312223082	0.004
7	617	20.003312884132	0.002
7	617	20.003312884132	0.012
7	642	20.003644884132	0.004
7	644	20.003644884134	0.012
7	665	20.003976884134	0.004
7	671	20.003976884134	0.002
7	671	20.003976884134	0.002
7	671	20.003976884134	0.102
7	700	20.006888486371	0.1
7	700	20.006888486371	0.11
7	712	20.007236486371	0.102
7	731	20.008324884134	0.004
7	731	20.008324884134	0.004
7	731	20.008324884134	0.004
7	751	20.012546529318	0.002
7	751	20.012546529318	0.012
7	763	20.012894529318	0.004
7	771	20.012894529318	0.002
7	771	20.012894529318	0.002
7	771	20.012894529318	0.102
7	790	20.012894873906	0.1
7	790	20.012894873906	0.11
7	816	20.013226529318	0.012
7	816	20.013226529318	0.012
7	832	20.013226873906	0.007
7	873	20.01590902938	0.007
7	905	20.017574845782	0.004
7	936	20.115951260278	0.002
7	936	20.115951260278	0.012
7	948	20.116315260278	0.004
7	978	20.117184600656	0.012
7	998	20.117516600656	0.004
7	1039	21	0.002
7	1039	21	0.002
7	1039	21	0.102
7	1051	21.004348	0.004
7	1051	21.004348	0.004
7	1071	21.006466549412	0.002
7	1071	21.006466549412	0.012
7	1083	21.006814549412	0.004
7	1115	21.009933052008	0.004
7	1159	21.013510522615	0.002
7	1159	21.013510522615	0.012
7	1183	21.013858522615	0.004
7	1188	21.013858522811	0.012
7	1241	21.014190522811	0.004
7	1254	21.014190867151	0.012
7	1282	21.014522867151	0.004
7	1284	21.014522867347	0.012
7	1324	21.016046458665	0.01
7	1324	21.016046458665	0.11
7	1360	21.016394458665	0.012
7	1360	21.016394458665	0.012
7	1374	21.018870867347	0.004
7	1425	22	0.002
7	1425	22	0.002
7	1425	22	0.102
7	1437	22.004348	0.004
7	1437	22.004348	0.004
7	1443	22.004348226052	0.002
7	1443	22.004348226052	0.012
7	1466	22.008696226052	0.004
7	1490	22.013859193374	0.004
7	1513	22.014111193394	0.002
7	1513	22.014111193394	0.012
7	1534	22.014363193394	0.004
7	1547	22.014363897152	0.004
7	1617	23	0.002
7	1617	23	0.102
7	1631	23.004348	0.004
7	1631	23.004348	0.004
7	1637	23.00434820921	0.002
7	1637	23.00434820921	0.012
7	1664	23.00869620921	0.004
7	1713	24	0.002
7	1713	24	0.002
7	1713	24	0.102
7	1727	24.004348	0.004
7	1727	24.004348	0.004
7	1733	24.004348195558	0.002
7	1733	24.004348195558	0.012
7	1761	24.008696195558	0.004
7	1802	24.400000096178	0.012
7	1816	24.400252096178	0.004
7	1822	24.400252192356	0.012
7	1848	24.400504192356	0.004
7	1886	25	0.002
7	1886	25	0.002
7	1886	25	0.102
7	1900	25.004348	0.004
7	1900	25.004348	0.004
7	1906	25.004348204946	0.002
7	1906	25.004348204946	0.012
7	1934	25.008696204946	0.004
7	1990	26	0.002
7	1990	26	0.002
7	1990	26	0.102
7	2004	26.004348	0.004
7	2004	26.004348	0.004
7	2013	26.004348233222	0.002
7	2013	26.004348233222	0.012
7	2043	26.008696233222	0.004
7	2098	27	0.002
7	2098	27	0.002
7	2098	27	0.102
7	2113	27.004348	0.004
7	2113	27.004348	0.004
7	2122	27.004348240974	0.002
7	2122	27.004348240974	0.012
7	2155	27.008696240974	0.004
7	2203	28	0.002
7	2203	28	0.002
7	2203	28	0.102
7	2218	28.004348	0.004
7	2218	28.004348	0.004
7	2230	28.00434827753	0.002
7	2230	28.00434827753	0.012
7	2261	28.00869627753	0.004
7	2308	29	0.002
7	2308	29	0.002
7	2308	29	0.102
7	2323	29.004348	0.004
7	2323	29.004348	0.004
7	2334	29.004348311396	0.002
7	2334	29.004348311396	0.012
7	2367	29.008696311396	0.004
7	2406	29.400000160056	0.012
7	2422	29.400252160056	0.004
7	2431	29.400252320112	0.012
7	2459	29.400504320112	0.004
7	2498	30	0.002
7	2498	30	0.002
7	2498	30	0.102
7	2513	30.004348	0.004
7	2513	30.004348	0.004
7	2526	30.004348329552	0.002
7	2526	30.004348329552	0.012
7	2557	30.008696329552	0.004
7	2609	31	0.002
7	2609	31	0.002
7	2609	31	0.102
7	2624	31.004348	0.004
7	2624	31.004348	0.004
7	2640	31.004348342306	0.002
7	2640	31.004348342306	0.012
7	2670	31.008696342306	0.004
7	2720	32	0.002
7	2720	32	0.002
7	2720	32	0.102
7	2735	32.004348	0.004
7	2735	32.004348	0.004
7	2752	32.004348349776	0.002
7	2752	32.004348349776	0.012
7	2783	32.008696349776	0.004
7	2833	33	0.002
7	2833	33	0.002
7	2833	33	0.102
7	2848	33.004348	0.004
7	2848	33.004348	0.004
7	2867	33.00434835309	0.002
7	2867	33.00434835309	0.012
7	2896	33.00869635309	0.004
7	2942	34	0.002
7	2942	34	0.002
7	2942	34	0.102
7	2957	34.004348	0.004
7	2957	34.004348	0.004
7	2974	34.004348353116	0.002
7	2974	34.004348353116	0.012
7	3002	34.008696353116	0.004
7	3042	34.400000175988	0.012
7	3060	34.400252175988	0.004
7	3073	34.400252351976	0.012
7	3099	34.400504351976	0.004
7	3138	35	0.002
7	3138	35	0.002
7	3138	35	0.102
7	3153	35.004348	0.004
7	3153	35.004348	0.004
7	3169	35.00434835019	0.002
7	3169	35.00434835019	0.012
7	3197	35.00869635019	0.004
7	3249	36	0.002
7	3249	36	0.002
7	3249	36	0.102
7	3264	36.004348	0.004
7	3264	36.004348	0.004
7	3281	36.004348346058	0.002
7	3281	36.004348346058	0.012
7	3309	36.008696346058	0.004
7	3363	37	0.002
7	3363	37	0.002
7	3363	37	0.102
7	3378	37.004348	0.004
7	3378	37.004348	0.004
7	3394	37.004348345182	0.002
7	3394	37.004348345182	0.012
7	3421	37.008696345182	0.004
7	3473	38	0.002
7	3473	38	0.002
7	3473	38	0.102
7	3488	38.004348	0.004
7	3488	38.004348	0.004
7	3504	38.004348345802	0.002
7	3504	38.004348345802	0.012
7	3532	38.008696345802	0.004
7	3585	39	0.002
7	3585	39	0.002
7	3585	39	0.102
7	3600	39.004348	0.004
7	3600	39.004348	0.004
7	3617	39.004348349798	0.002
7	3617	39.004348349798	0.012
7	3644	39.008696349798	0.004
7	3682	39.400000175574	0.012
7	3699	39.400252175574	0.004
7	3711	39.400252351148	0.012
7	3738	39.400504351148	0.004
7	3778	40	0.002
7	3778	40	0.002
7	3778	40	0.102
7	3793	40.004348	0.004
7	3793	40.004348	0.004
7	3810	40.004348353126	0.002
7	3810	40.004348353126	0.012
7	3838	40.008696353126	0.004
7	3889	41	0.002
7	3889	41	0.002
7	3889	41	0.102
7	3904	41.004348	0.004
7	3904	41.004348	0.004
7	3919	41.004348354188	0.002
7	3919	41.004348354188	0.012
7	3947	41.008696354188	0.004
7	3998	42	0.002
7	3998	42	0.002
7	3998	42	0.102
7	4013	42.004348	0.004
7	4013	42.004348	0.004
7	4025	42.004348354252	0.002
7	4025	42.004348354252	0.012
7	4055	42.008696354252	0.004
7	4107	43	0.002
7	4107	43	0.002
7	4107	43	0.102
7	4122	43.004348	0.004
7	4122	43.004348	0.004
7	4135	43.004348354386	0.002
7	4135	43.004348354386	0.012
7	4164	43.008696354386	0.004
7	4214	44	0.002
7	4214	44	0.002
7	4214	44	0.102
7	4229	44.004348	0.004
7	4229	44.004348	0.004
7	4238	44.004348354332	0.002
7	4238	44.004348354332	0.012
7	4268	44.008696354332	0.004
7	4306	44.400000177203	0.012
7	4322	44.400252177203	0.004
7	4333	44.400252354406	0.012
7	4359	44.400504354406	0.004
7	4400	45	0.002
7	4400	45	0.002
7	4400	45	0.102
7	4415	45.004348	0.004
7	4415	45.004348	0.004
7	4425	45.004348354296	0.002
7	4425	45.004348354296	0.012
7	4454	45.008696354296	0.004
7	4505	46	0.002
7	4505	46	0.002
7	4505	46	0.102
7	4520	46.004348	0.004
7	4520	46.004348	0.004
7	4526	46.004348353854	0.002
7	4526	46.004348353854	0.012
7	4556	46.008696353854	0.004
7	4610	47	0.002
7	4610	47	0.002
7	4610	47	0.102
7	4625	47.004348	0.004
7	4625	47.004348	0.004
7	4632	47.004348353236	0.002
7	4632	47.004348353236	0.012
7	4661	47.008696353236	0.004
7	4713	48	0.002
7	4713	48	0.002
7	4713	48	0.102
7	4728	48.004348	0.004
7	4728	48.004348	0.004
7	4734	48.004348348094	0.002
7	4734	48.004348348094	0.012
7	4763	48.008696348094	0.004
7	4815	49	0.002
7	4815	49	0.002
7	4815	49	0.102
7	4830	49.004348	0.004
7	4830	49.004348	0.004
7	4836	49.004348342008	0.002
7	4836	49.004348342008	0.012
7	4865	49.008696342008	0.004
7	4901	49.400000170892	0.012
7	4916	49.400252170892	0.004
7	4922	49.400252341784	0.012
7	4950	49.400504341784	0.004
7	4989	50	0.002
7	4989	50	0.002
7	4989	50	0.102
7	5004	50.004348	0.004
7	5004	50.004348	0.004
7	5011	50.004348342042	0.002
7	5011	50.004348342042	0.012
7	5040	50.008696342042	0.004
7	5092	51	0.002
7	5092	51	0.002
7	5092	51	0.102
7	5107	51.004348	0.004
7	5107	51.004348	0.004
7	5113	51.004348349912	0.002
7	5113	51.004348349912	0.012
7	5142	51.008696349912	0.004
7	5193	52	0.002
7	5193	52	0.002
7	5193	52	0.102
7	5208	52.004348	0.004
7	5208	52.004348	0.004
7	5214	52.004348353868	0.002
7	5214	52.004348353868	0.012
7	5243	52.008696353868	0.004
7	5295	53	0.002
7	5295	53	0.002
7	5295	53	0.102
7	5310	53.004348	0.004
7	5310	53.004348	0.004
7	5317	53.004348354294	0.002
7	5317	53.004348354294	0.012
7	5346	53.008696354294	0.004
7	5397	54	0.002
7	5397	54	0.002
7	5397	54	0.102
7	5412	54.004348	0.004
7	5412	54.004348	0.004
7	5418	54.00434835428	0.002
7	5418	54.00434835428	0.012
7	5447	54.00869635428	0.004
7	5483	54.400000177125	0.012
7	5498	54.400252177125	0.004
7	5506	54.40025235425	0.012
7	5532	54.40050435425	0.004
7	5572	55	0.002
7	5572	55	0.002
7	5572	55	0.102
7	5587	55.004348	0.004
7	5587	55.004348	0.004
7	5594	55.004348354076	0.002
7	5594	55.004348354076	0.012
7	5623	55.008696354076	0.004
7	5674	56	0.002
7	5674	56	0.002
7	5674	56	0.102
7	5689	56.004348	0.004
7	5689	56.004348	0.004
7	5695	56.004348354004	0.002
7	5695	56.004348354004	0.012
7	5724	56.008696354004	0.004
7	5776	57	0.002
7	5776	57	0.002
7	5776	57	0.102
7	5791	57.004348	0.004
7	5791	57.004348	0.004
7	5798	57.00434835252	0.002
7	5798	57.00434835252	0.012
7	5827	57.00869635252	0.004
7	5878	58	0.002
7	5878	58	0.002
7	5878	58	0.102
7	5893	58.004348	0.004
7	5893	58.004348	0.004
7	5899	58.004348343946	0.002
7	5899	58.004348343946	0.012
7	5928	58.008696343946	0.004
7	5980	59	0.002
7	5980	59	0.002
7	5980	59	0.102
7	5995	59.004348	0.004
7	5995	59.004348	0.004
7	6001	59.00434833026	0.002
7	6001	59.00434833026	0.012
7	6030	59.00869633026	0.004
7	6066	59.40000016383	0.012
7	6081	59.40025216383	0.004
7	6087	59.40025232766	0.012
7	6115	59.40050432766	0.004
7	6154	60	0.002
7	6154	60	0.002
7	6154	60	0.102
7	6169	60.004348	0.004
7	6169	60.004348	0.004
7	6176	60.00434833259	0.002
7	6176	60.00434833259	0.012
7	6205	60.00869633259	0.004
8	2	0.1	0
8	2	0.1	0
8	2	0.1	4
9	2	0.1	0
9	2	0.1	0
9	2	0.1	0
9	2	0.1	0.002
9	2	0.1	0.004
9	242	13.800000173209	0.002
9	242	13.800000173209	0.012
9	252	13.800252173209	0.004
9	256	13.800252173209	0.002
9	256	13.800252173209	0.002
9	256	13.800252173209	0.102
9	271	13.800504173209	0.004
9	271	13.800504173209	0.004
9	294	14.100000173325	0.002
9	294	14.100000173325	0.012
9	306	14.100252173325	0.004
9	314	14.100252516156	0.012
9	329	14.100504516156	0.004
9	347	14.400000173393	0.012
9	356	14.400252173393	0.004
9	363	14.400252346786	0.012
9	377	14.400504346786	0.004
9	509	19.400000167518	0.012
9	521	19.400252167518	0.004
9	527	19.400252335036	0.012
9	549	19.400504335036	0.004
9	587	20.002964223082	0.002
9	587	20.002964223082	0.002
9	587	20.002964223082	0.102
9	599	20.003312223082	0.004
9	599	20.003312223082	0.004
9	617	20.003312884132	0.002
9	617	20.003312884132	0.012
9	642	20.003644884132	0.004
9	644	20.003644884134	0.012
9	665	20.003976884134	0.004
9	671	20.003976884134	0.002
9	671	20.003976884134	0.002
9	671	20.003976884134	0.102
9	700	20.006888486371	0.1
9	700	20.006888486371	0.11
9	712	20.007236486371	0.102
9	731	20.008324884134	0.004
9	731	20.008324884134	0.004
9	731	20.008324884134	0.004
9	751	20.012546529318	0.002
9	751	20.012546529318	0.012
9	763	20.012894529318	0.004
9	771	20.012894529318	0.002
9	771	20.012894529318	0.002
9	771	20.012894529318	0.102
9	790	20.012894873906	0.1
9	790	20.012894873906	0.11
9	816	20.013226529318	0.012
9	816	20.013226529318	0.012
9	832	20.013226873906	0.007
9	873	20.01590902938	0.007
9	905	20.017574845782	0.004
9	936	20.115951260278	0.002
9	936	20.115951260278	0.012
9	948	20.116315260278	0.004
9	978	20.117184600656	0.012
9	998	20.117516600656	0.004
9	1039	21	0.002
9	1039	21	0.002
9	1039	21	0.102
9	1051	21.004348	0.004
9	1051	21.004348	0.004
9	1071	21.006466549412	0.002
9	1071	21.006466549412	0.012
9	1083	21.006814549412	0.004
9	1115	21.009933052008	0.004
9	1159	21.013510522615	0.002
9	1159	21.013510522615	0.012
9	1183	21.013858522615	0.004
9	1188	21.013858522811	0.012
9	1241	21.014190522811	0.004
9	1254	21.014190867151	0.012
9	1282	21.014522867151	0.004
9	1284	21.014522867347	0.012
9	1324	21.016046458665	0.01
9	1324	21.016046458665	0.11
9	1360	21.016394458665	0.012
9	1360	21.016394458665	0.012
9	1374	21.018870867347	0.004
9	1425	22	0.002
9	1425	22	0.002
9	1425	22	0.102
9	1437	22.004348	0.004
9	1437	22.004348	0.004
9	1443	22.004348226052	0.002
9	1443	22.004348226052	0.012
9	1466	22.008696226052	0.004
9	1490	22.013859193374	0.004
9	1513	22.014111193394	0.002
9	1513	22.014111193394	0.012
9	1534	22.014363193394	0.004
9	1547	22.014363897152	0.004
9	1617	23	0.002
9	1617	23	0.102
9	1631	23.004348	0.004
9	1631	23.004348	0.004
9	1637	23.00434820921	0.002
9	1637	23.00434820921	0.012
9	1664	23.00869620921	0.004
9	1713	24	0.002
9	1713	24	0.002
9	1713	24	0.102
9	1727	24.004348	0.004
9	1727	24.004348	0.004
9	1733	24.004348195558	0.002
9	1733	24.004348195558	0.012
9	1761	24.008696195558	0.004
9	1802	24.400000096178	0.012
9	1816	24.400252096178	0.004
9	1822	24.400252192356	0.012
9	1848	24.400504192356	0.004
9	1886	25	0.002
9	1886	25	0.002
9	1886	25	0.102
9	1900	25.004348	0.004
9	1900	25.004348	0.004
9	1906	25.004348204946	0.002
9	1906	25.004348204946	0.012
9	1934	25.008696204946	0.004
9	1990	26	0.002
9	1990	26	0.002
9	1990	26	0.102
9	2004	26.004348	0.004
9	2004	26.004348	0.004
9	2013	26.004348233222	0.002
9	2013	26.004348233222	0.012
9	2043	26.008696233222	0.004
9	2098	27	0.002
9	2098	27	0.002
9	2098	27	0.102
9	2113	27.004348	0.004
9	2113	27.004348	0.004
9	2122	27.004348240974	0.002
9	2122	27.004348240974	0.012
9	2155	27.008696240974	0.004
9	2203	28	0.002
9	2203	28	0.002
9	2203	28	0.102
9	2218	28.004348	0.004
9	2218	28.004348	0.004
9	2230	28.00434827753	0.002
9	2230	28.00434827753	0.012
9	2261	28.00869627753	0.004
9	2308	29	0.002
9	2308	29	0.002
9	2308	29	0.102
9	2323	29.004348	0.004
9	2323	29.004348	0.004
9	2334	29.004348311396	0.002
9	2334	29.004348311396	0.012
9	2367	29.008696311396	0.004
9	2406	29.400000160056	0.012
9	2422	29.400252160056	0.004
9	2431	29.400252320112	0.012
9	2459	29.400504320112	0.004
9	2498	30	0.002
9	2498	30	0.002
9	2498	30	0.102
9	2513	30.004348	0.004
9	2513	30.004348	0.004
9	2526	30.004348329552	0.002
9	2526	30.004348329552	0.012
9	2557	30.008696329552	0.004
9	2609	31	0.002
9	2609	31	0.002
9	2609	31	0.102
9	2624	31.004348	0.004
9	2624	31.004348	0.004
9	2640	31.004348342306	0.002
9	2640	31.004348342306	0.012
9	2670	31.008696342306	0.004
9	2720	32	0.002
9	2720	32	0.002
9	2720	32	0.102
9	2735	32.004348	0.004
9	2735	32.004348	0.004
9	2752	32.004348349776	0.002
9	2752	32.004348349776	0.012
9	2783	32.008696349776	0.004
9	2833	33	0.002
9	2833	33	0.002
9	2833	33	0.102
9	2848	33.004348	0.004
9	2848	33.004348	0.004
9	2867	33.00434835309	0.002
9	2867	33.00434835309	0.012
9	2896	33.00869635309	0.004
9	2942	34	0.002
9	2942	34	0.002
9	2942	34	0.102
9	2957	34.004348	0.004
9	2957	34.004348	0.004
9	2974	34.004348353116	0.002
9	2974	34.004348353116	0.012
9	3002	34.008696353116	0.004
9	3042	34.400000175988	0.012
9	3060	34.400252175988	0.004
9	3073	34.400252351976	0.012
9	3099	34.400504351976	0.004
9	3138	35	0.002
9	3138	35	0.002
9	3138	35	0.102
9	3153	35.004348	0.004
9	3153	35.004348	0.004
9	3169	35.00434835019	0.002
9	3169	35.00434835019	0.012
9	3197	35.00869635019	0.004
9	3249	36	0.002
9	3249	36	0.002
9	3249	36	0.102
9	3264	36.004348	0.004
9	3264	36.004348	0.004
9	3281	36.004348346058	0.002
9	3281	36.004348346058	0.012
9	3309	36.008696346058	0.004
9	3363	37	0.002
9	3363	37	0.002
9	3363	37	0.102
9	3378	37.004348	0.004
9	3378	37.004348	0.004
9	3394	37.004348345182	0.002
9	3394	37.004348345182	0.012
9	3421	37.008696345182	0.004
9	3473	38	0.002
9	3473	38	0.002
9	3473	38	0.102
9	3488	38.004348	0.004
9	3488	38.004348	0.004
9	3504	38.004348345802	0.002
9	3504	38.004348345802	0.012
9	3532	38.008696345802	0.004
9	3585	39	0.002
9	3585	39	0.002
9	3585	39	0.102
9	3600	39.004348	0.004
9	3600	39.004348	0.004
9	3617	39.004348349798	0.002
9	3617	39.004348349798	0.012
9	3644	39.008696349798	0.004
9	3682	39.400000175574	0.012
9	3699	39.400252175574	0.004
9	3711	39.400252351148	0.012
9	3738	39.400504351148	0.004
9	3778	40	0.002
9	3778	40	0.002
9	3778	40	0.102
9	3793	40.004348	0.004
9	3793	40.004348	0.004
9	3810	40.004348353126	0.002
9	3810	40.004348353126	0.012
9	3838	40.008696353126	0.004
9	3889	41	0.002
9	3889	41	0.002
9	3889	41	0.102
9	3904	41.004348	0.004
9	3904	41.004348	0.004
9	3919	41.004348354188	0.002
9	3919	41.004348354188	0.012
9	3947	41.008696354188	0.004
9	3998	42	0.002
9	3998	42	0.002
9	3998	42	0.102
9	4013	42.004348	0.004
9	4013	42.004348	0.004
9	4025	42.004348354252	0.002
9	4025	42.004348354252	0.012
9	4055	42.008696354252	0.004
9	4107	43	0.002
9	4107	43	0.002
9	4107	43	0.102
9	4122	43.004348	0.004
9	4122	43.004348	0.004
9	4135	43.004348354386	0.002
9	4135	43.004348354386	0.012
9	4164	43.008696354386	0.004
9	4214	44	0.002
9	4214	44	0.002
9	4214	44	0.102
9	4229	44.004348	0.004
9	4229	44.004348	0.004
9	4238	44.004348354332	0.002
9	4238	44.004348354332	0.012
9	4268	44.008696354332	0.004
9	4306	44.400000177203	0.012
9	4322	44.400252177203	0.004
9	4333	44.400252354406	0.012
9	4359	44.400504354406	0.004
9	4400	45	0.002
9	4400	45	0.002
9	4400	45	0.102
9	4415	45.004348	0.004
9	4415	45.004348	0.004
9	4425	45.004348354296	0.002
9	4425	45.004348354296	0.012
9	4454	45.008696354296	0.004
9	4505	46	0.002
9	4505	46	0.002
9	4505	46	0.102
9	4520	46.004348	0.004
9	4520	46.004348	0.004
9	4526	46.004348353854	0.002
9	4526	46.004348353854	0.012
9	4556	46.008696353854	0.004
9	4610	47	0.002
9	4610	47	0.002
9	4610	47	0.102
9	4625	47.004348	0.004
9	4625	47.004348	0.004
9	4632	47.004348353236	0.002
9	4632	47.004348353236	0.012
9	4661	47.008696353236	0.004
9	4713	48	0.002
9	4713	48	0.002
9	4713	48	0.102
9	4728	48.004348	0.004
9	4728	48.004348	0.004
9	4734	48.004348348094	0.002
9	4734	48.004348348094	0.012
9	4763	48.008696348094	0.004
9	4815	49	0.002
9	4815	49	0.002
9	4815	49	0.102
9	4830	49.004348	0.004
9	4830	49.004348	0.004
9	4836	49.004348342008	0.002
9	4836	49.004348342008	0.012
9	4865	49.008696342008	0.004
9	4901	49.400000170892	0.012
9	4916	49.400252170892	0.004
9	4922	49.400252341784	0.012
9	4950	49.400504341784	0.004
9	4989	50	0.002
9	4989	50	0.002
9	4989	50	0.102
9	5004	50.004348	0.004
9	5004	50.004348	0.004
9	5011	50.004348342042	0.002
9	5011	50.004348342042	0.012
9	5040	50.008696342042	0.004
9	5092	51	0.002
9	5092	51	0.002
9	5092	51	0.102
9	5107	51.004348	0.004
9	5107	51.004348	0.004
9	5113	51.004348349912	0.002
9	5113	51.004348349912	0.012
9	5142	51.008696349912	0.004
9	5193	52	0.002
9	5193	52	0.002
9	5193	52	0.102
9	5208	52.004348	0.004
9	5208	52.004348	0.004
9	5214	52.004348353868	0.002
9	5214	52.004348353868	0.012
9	5243	52.008696353868	0.004
9	5295	53	0.002
9	5295	53	0.002
9	5295	53	0.102
9	5310	53.004348	0.004
9	5310	53.004348	0.004
9	5317	53.004348354294	0.002
9	5317	53.004348354294	0.012
9	5346	53.008696354294	0.004
9	5397	54	0.002
9	5397	54	0.002
9	5397	54	0.102
9	5412	54.004348	0.004
9	5412	54.004348	0.004
9	5418	54.00434835428	0.002
9	5418	54.00434835428	0.012
9	5447	54.00869635428	0.004
9	5483	54.400000177125	0.012
9	5498	54.400252177125	0.004
9	5506	54.40025235425	0.012
9	5532	54.40050435425	0.004
9	5572	55	0.002
9	5572	55	0.002
9	5572	55	0.102
9	5587	55.004348	0.004
9	5587	55.004348	0.004
9	5594	55.004348354076	0.002
9	5594	55.004348354076	0.012
9	5623	55.008696354076	0.004
9	5674	56	0.002
9	5674	56	0.002
9	5674	56	0.102
9	5689	56.004348	0.004
9	5689	56.004348	0.004
9	5695	56.004348354004	0.002
9	5695	56.004348354004	0.012
9	5724	56.008696354004	0.004
9	5776	57	0.002
9	5776	57	0.002
9	5776	57	0.102
9	5791	57.004348	0.004
9	5791	57.004348	0.004
9	5798	57.00434835252	0.002
9	5798	57.00434835252	0.012
9	5827	57.00869635252	0.004
9	5878	58	0.002
9	5878	58	0.002
9	5878	58	0.102
9	5893	58.004348	0.004
9	5893	58.004348	0.004
9	5899	58.004348343946	0.002
9	5899	58.004348343946	0.012
9	5928	58.008696343946	0.004
9	5980	59	0.002
9	5980	59	0.002
9	5980	59	0.102
9	5995	59.004348	0.004
9	5995	59.004348	0.004
9	6001	59.00434833026	0.002
9	6001	59.00434833026	0.012
9	6030	59.00869633026	0.004
9	6066	59.40000016383	0.012
9	6081	59.40025216383	0.004
9	6087	59.40025232766	0.012
9	6115	59.40050432766	0.004
9	6154	60	0.002
9	6154	60	0.002
9	6154	60	0.102
9	6169	60.004348	0.004
9	6169	60.004348	0.004
9	6176	60.00434833259	0.002
9	6176	60.00434833259	0.012
9	6205	60.00869633259	0.004
10	2	0.1	1
10	242	13.800000173209	3
10	252	13.800252173209	1
10	294	14.100000173325	3
10	306	14.100252173325	1
10	314	14.100252516156	3
10	329	14.100504516156	1
10	347	14.400000173393	3
10	356	14.400252173393	1
10	363	14.400252346786	3
10	377	14.400504346786	1
10	509	19.400000167518	3
10	521	19.400252167518	1
10	527	19.400252335036	3
10	549	19.400504335036	1
10	617	20.003312884132	3
10	642	20.003644884132	1
10	644	20.003644884134	3
10	665	20.003976884134	1
10	700	20.006888486371	3
10	712	20.007236486371	1
10	751	20.012546529318	3
10	763	20.012894529318	1
10	790	20.012894873906	3
10	832	20.013226873906	2
10	905	20.017574845782	1
10	936	20.115951260278	3
10	948	20.116315260278	1
10	978	20.117184600656	3
10	998	20.117516600656	1
10	1071	21.006466549412	3
10	1083	21.006814549412	1
10	1159	21.013510522615	3
10	1183	21.013858522615	1
10	1188	21.013858522811	3
10	1241	21.014190522811	1
10	1254	21.014190867151	3
10	1282	21.014522867151	1
10	1284	21.014522867347	3
10	1374	21.018870867347	1
10	1443	22.004348226052	3
10	1466	22.008696226052	1
10	1513	22.014111193394	3
10	1534	22.014363193394	1
10	1637	23.00434820921	3
10	1664	23.00869620921	1
10	1733	24.004348195558	3
10	1761	24.008696195558	1
10	1802	24.400000096178	3
10	1816	24.400252096178	1
10	1822	24.400252192356	3
10	1848	24.400504192356	1
10	1906	25.004348204946	3
10	1934	25.008696204946	1
10	2013	26.004348233222	3
10	2043	26.008696233222	1
10	2122	27.004348240974	3
10	2155	27.008696240974	1
10	2230	28.00434827753	3
10	2261	28.00869627753	1
10	2334	29.004348311396	3
10	2367	29.008696311396	1
10	2406	29.400000160056	3
10	2422	29.400252160056	1
10	2431	29.400252320112	3
10	2459	29.400504320112	1
10	2526	30.004348329552	3
10	2557	30.008696329552	1
10	2640	31.004348342306	3
10	2670	31.008696342306	1
10	2752	32.004348349776	3
10	2783	32.008696349776	1
10	2867	33.00434835309	3
10	2896	33.00869635309	1
10	2974	34.004348353116	3
10	3002	34.008696353116	1
10	3042	34.400000175988	3
10	3060	34.400252175988	1
10	3073	34.400252351976	3
10	3099	34.400504351976	1
10	3169	35.00434835019	3
10	3197	35.00869635019	1
10	3281	36.004348346058	3
10	3309	36.008696346058	1
10	3394	37.004348345182	3
10	3421	37.008696345182	1
10	3504	38.004348345802	3
10	3532	38.008696345802	1
10	3617	39.004348349798	3
10	3644	39.008696349798	1
10	3682	39.400000175574	3
10	3699	39.400252175574	1
10	3711	39.400252351148	3
10	3738	39.400504351148	1
10	3810	40.004348353126	3
10	3838	40.008696353126	1
10	3919	41.004348354188	3
10	3947	41.008696354188	1
10	4025	42.004348354252	3
10	4055	42.008696354252	1
10	4135	43.004348354386	3
10	4164	43.008696354386	1
10	4238	44.004348354332	3
10	4268	44.008696354332	1
10	4306	44.400000177203	3
10	4322	44.400252177203	1
10	4333	44.400252354406	3
10	4359	44.400504354406	1
10	4425	45.004348354296	3
10	4454	45.008696354296	1
10	4526	46.004348353854	3
10	4556	46.008696353854	1
10	4632	47.004348353236	3
10	4661	47.008696353236	1
10	4734	48.004348348094	3
[...]
190	6241	53.8	0
190	6241	53.9	0
190	6241	54	0
190	6241	54.1	0
190	6241	54.2	0
190	6241	54.3	0
190	6241	54.4	0
190	6241	54.5	0
190	6241	54.6	0
190	6241	54.7	0
190	6241	54.8	0
190	6241	54.9	0
190	6241	55	0
190	6241	55.1	0
190	6241	55.2	0
190	6241	55.3	0
190	6241	55.4	0
190	6241	55.5	0
190	6241	55.6	0
190	6241	55.7	0
190	6241	55.8	0
190	6241	55.9	0
190	6241	56	0
190	6241	56.1	0
190	6241	56.2	0
190	6241	56.3	0
190	6241	56.4	0
190	6241	56.5	0
190	6241	56.6	0
190	6241	56.7	0
190	6241	56.8	0
190	6241	56.9	0
190	6241	57	0
190	6241	57.1	0
190	6241	57.2	0
190	6241	57.3	0
190	6241	57.4	0
190	6241	57.5	0
190	6241	57.6	0
190	6241	57.7	0
190	6241	57.8	0
190	6241	57.9	0
190	6241	58	0
190	6241	58.1	0
190	6241	58.2	0
190	6241	58.3	0
190	6241	58.4	0
190	6241	58.5	0
190	6241	58.6	0
190	6241	58.7	0
190	6241	58.8	0
190	6241	58.9	0
190	6241	59	0
190	6241	59.1	0
190	6241	59.2	0
190	6241	59.3	0
190	6241	59.4	0
190	6241	59.5	0
190	6241	59.6	0
190	6241	59.7	0
190	6241	59.8	0
190	6241	59.9	0
190	6241	60	0
190	6241	60.1	0
190	6241	60.2	0
190	6241	60.3	0
190	6241	60.4	0
190	6241	60.5	0
191	6241	0.1	0
191	6241	0.2	0
191	6241	0.3	0
191	6241	0.4	0
191	6241	0.5	0
191	6241	0.6	0
191	6241	0.7	0
191	6241	0.8	0
191	6241	0.9	0
191	6241	1	0
191	6241	1.1	0
191	6241	1.2	0
191	6241	1.3	0
191	6241	1.4	0
191	6241	1.5	0
191	6241	1.6	0
191	6241	1.7	0
191	6241	1.8	0
191	6241	1.9	0
191	6241	2	0
191	6241	2.1	0
191	6241	2.2	0
191	6241	2.3	0
191	6241	2.4	0
191	6241	2.5	0
191	6241	2.6	0
191	6241	2.7	0
191	6241	2.8	0
191	6241	2.9	0
191	6241	3	0
191	6241	3.1	0
191	6241	3.2	0
191	6241	3.3	0
191	6241	3.4	0
191	6241	3.5	0
191	6241	3.6	0
191	6241	3.7	0
191	6241	3.8	0
191	6241	3.9	0
191	6241	4	0
191	6241	4.1	0
191	6241	4.2	0
191	6241	4.3	0
191	6241	4.4	0
191	6241	4.5	0
191	6241	4.6	0
191	6241	4.7	0
191	6241	4.8	0
191	6241	4.9	0
191	6241	5	0
191	6241	5.1	0
191	6241	5.2	0
191	6241	5.3	0
191	6241	5.4	0
191	6241	5.5	0
191	6241	5.6	0
191	6241	5.7	0
191	6241	5.8	0
191	6241	5.9	0
191	6241	6	0
191	6241	6.1	0
191	6241	6.2	0
191	6241	6.3	0
191	6241	6.4	0
191	6241	6.5	0
191	6241	6.6	0
191	6241	6.7	0
191	6241	6.8	0
191	6241	6.9	0
191	6241	7	0
191	6241	7.1	0
191	6241	7.2	0
191	6241	7.3	0
191	6241	7.4	0
191	6241	7.5	0
191	6241	7.6	0
191	6241	7.7	0
191	6241	7.8	0
191	6241	7.9	0
191	6241	8	0
191	6241	8.1	0
191	6241	8.2	0
191	6241	8.3	0
191	6241	8.4	0
191	6241	8.5	0
191	6241	8.6	0
191	6241	8.7	0
191	6241	8.8	0
191	6241	8.9	0
191	6241	9	0
191	6241	9.1	0
191	6241	9.2	0
191	6241	9.3	0
191	6241	9.4	0
191	6241	9.5	0
191	6241	9.6	0
191	6241	9.7	0
191	6241	9.8	0
191	6241	9.9	0
191	6241	10	0
191	6241	10.1	0
191	6241	10.2	0
191	6241	10.3	0
191	6241	10.4	0
191	6241	10.5	0
191	6241	10.6	0
191	6241	10.7	0
191	6241	10.8	0
191	6241	10.9	0
191	6241	11	0
191	6241	11.1	0
191	6241	11.2	0
191	6241	11.3	0
191	6241	11.4	0
191	6241	11.5	0
191	6241	11.6	0
191	6241	11.7	0
191	6241	11.8	0
191	6241	11.9	0
191	6241	12	0
191	6241	12.1	0
191	6241	12.2	0
191	6241	12.3	0
191	6241	12.4	0
191	6241	12.5	0
191	6241	12.6	0
191	6241	12.7	0
191	6241	12.8	0
191	6241	12.9	0
191	6241	13	0
191	6241	13.1	0
191	6241	13.2	0
191	6241	13.3	0
191	6241	13.4	0
191	6241	13.5	0
191	6241	13.6	0
191	6241	13.7	0
191	6241	13.8	0
191	6241	13.9	0
191	6241	14	0
191	6241	14.1	0
191	6241	14.2	0
191	6241	14.3	0
191	6241	14.4	0
191	6241	14.5	0
191	6241	14.6	0
191	6241	14.7	0
191	6241	14.8	0
191	6241	14.9	0
191	6241	15	0
191	6241	15.1	0
191	6241	15.2	0
191	6241	15.3	0
191	6241	15.4	0
191	6241	15.5	0
191	6241	15.6	0
191	6241	15.7	0
191	6241	15.8	0
191	6241	15.9	0
191	6241	16	0
191	6241	16.1	0
191	6241	16.2	0
191	6241	16.3	0
191	6241	16.4	0
191	6241	16.5	0
191	6241	16.6	0
191	6241	16.7	0
191	6241	16.8	0
191	6241	16.9	0
191	6241	17	0
191	6241	17.1	0
191	6241	17.2	0
191	6241	17.3	0
191	6241	17.4	0
191	6241	17.5	0
191	6241	17.6	0
191	6241	17.7	0
191	6241	17.8	0
191	6241	17.9	0
191	6241	18	0
191	6241	18.1	0
191	6241	18.2	0
191	6241	18.3	0
191	6241	18.4	0
191	6241	18.5	0
191	6241	18.6	0
191	6241	18.7	0
191	6241	18.8	0
191	6241	18.9	0
191	6241	19	0
191	6241	19.1	0
191	6241	19.2	0
191	6241	19.3	0
191	6241	19.4	0
191	6241	19.5	0
191	6241	19.6	0
191	6241	19.7	0
191	6241	19.8	0
191	6241	19.9	0
191	6241	20	0
191	6241	20.1	0
191	6241	20.2	0
191	6241	20.3	0
191	6241	20.4	0
191	6241	20.5	0
191	6241	20.6	0
191	6241	20.7	0
191	6241	20.8	0
191	6241	20.9	0
191	6241	21	0
191	6241	21.1	0
191	6241	21.2	0
191	6241	21.3	0
191	6241	21.4	0
191	6241	21.5	0
191	6241	21.6	0
191	6241	21.7	0
191	6241	21.8	0
191	6241	21.9	0
191	6241	22	0
191	6241	22.1	0
191	6241	22.2	0
191	6241	22.3	0
191	6241	22.4	0
191	6241	22.5	0
191	6241	22.6	0
191	6241	22.7	0
191	6241	22.8	0
191	6241	22.9	0
191	6241	23	0
191	6241	23.1	0
191	6241	23.2	0
191	6241	23.3	0
191	6241	23.4	0
191	6241	23.5	0
191	6241	23.6	0
191	6241	23.7	0
191	6241	23.8	0
191	6241	23.9	0
191	6241	24	0
191	6241	24.1	0
191	6241	24.2	0
191	6241	24.3	0
191	6241	24.4	0
191	6241	24.5	0
191	6241	24.6	0
191	6241	24.7	0
191	6241	24.8	0
191	6241	24.9	0
191	6241	25	0
191	6241	25.1	0
191	6241	25.2	0
191	6241	25.3	0
191	6241	25.4	0
191	6241	25.5	0
191	6241	25.6	0
191	6241	25.7	0
191	6241	25.8	0
191	6241	25.9	0
191	6241	26	0
191	6241	26.1	0
191	6241	26.2	0
191	6241	26.3	0
191	6241	26.4	0
191	6241	26.5	0
191	6241	26.6	0
191	6241	26.7	0
191	6241	26.8	0
191	6241	26.9	0
191	6241	27	0
191	6241	27.1	0
191	6241	27.2	0
191	6241	27.3	0
191	6241	27.4	0
191	6241	27.5	0
191	6241	27.6	0
191	6241	27.7	0
191	6241	27.8	0
191	6241	27.9	0
191	6241	28	0
191	6241	28.1	0
191	6241	28.2	0
191	6241	28.3	0
191	6241	28.4	0
191	6241	28.5	0
191	6241	28.6	0
191	6241	28.7	0
191	6241	28.8	0
191	6241	28.9	0
191	6241	29	0
191	6241	29.1	0
191	6241	29.2	0
191	6241	29.3	0
191	6241	29.4	0
191	6241	29.5	0
191	6241	29.6	0
191	6241	29.7	0
191	6241	29.8	0
191	6241	29.9	0
191	6241	30	0
191	6241	30.1	0
191	6241	30.2	0
191	6241	30.3	0
191	6241	30.4	0
191	6241	30.5	0
191	6241	30.6	0
191	6241	30.7	0
191	6241	30.8	0
191	6241	30.9	0
191	6241	31	0
191	6241	31.1	0
191	6241	31.2	0
191	6241	31.3	0
191	6241	31.4	0
191	6241	31.5	0
191	6241	31.6	0
191	6241	31.7	0
191	6241	31.8	0
191	6241	31.9	0
191	6241	32	0
191	6241	32.1	0
191	6241	32.2	0
191	6241	32.3	0
191	6241	32.4	0
191	6241	32.5	0
191	6241	32.6	0
191	6241	32.7	0
191	6241	32.8	0
191	6241	32.9	0
191	6241	33	0
191	6241	33.1	0
191	6241	33.2	0
191	6241	33.3	0
191	6241	33.4	0
191	6241	33.5	0
191	6241	33.6	0
191	6241	33.7	0
191	6241	33.8	0
191	6241	33.9	0
191	6241	34	0
191	6241	34.1	0
191	6241	34.2	0
191	6241	34.3	0
191	6241	34.4	0
191	6241	34.5	0
191	6241	34.6	0
191	6241	34.7	0
191	6241	34.8	0
191	6241	34.9	0
191	6241	35	0
191	6241	35.1	0
191	6241	35.2	0
191	6241	35.3	0
191	6241	35.4	0
191	6241	35.5	0
191	6241	35.6	0
191	6241	35.7	0
191	6241	35.8	0
191	6241	35.9	0
191	6241	36	0
191	6241	36.1	0
191	6241	36.2	0
191	6241	36.3	0
191	6241	36.4	0
191	6241	36.5	0
191	6241	36.6	0
191	6241	36.7	0
191	6241	36.8	0
191	6241	36.9	0
191	6241	37	0
191	6241	37.1	0
191	6241	37.2	0
191	6241	37.3	0
191	6241	37.4	0
191	6241	37.5	0
191	6241	37.6	0
191	6241	37.7	0
191	6241	37.8	0
191	6241	37.9	0
191	6241	38	0
191	6241	38.1	0
191	6241	38.2	0
191	6241	38.3	0
191	6241	38.4	0
191	6241	38.5	0
191	6241	38.6	0
191	6241	38.7	0
191	6241	38.8	0
191	6241	38.9	0
191	6241	39	0
191	6241	39.1	0
191	6241	39.2	0
191	6241	39.3	0
191	6241	39.4	0
191	6241	39.5	0
191	6241	39.6	0
191	6241	39.7	0
191	6241	39.8	0
191	6241	39.9	0
191	6241	40	0
191	6241	40.1	0
191	6241	40.2	0
191	6241	40.3	0
191	6241	40.4	0
191	6241	40.5	0
191	6241	40.6	0
191	6241	40.7	0
191	6241	40.8	0
191	6241	40.9	0
191	6241	41	0
191	6241	41.1	0
191	6241	41.2	0
191	6241	41.3	0
191	6241	41.4	0
191	6241	41.5	0
191	6241	41.6	0
191	6241	41.7	0
191	6241	41.8	0
191	6241	41.9	0
191	6241	42	0
191	6241	42.1	0
191	6241	42.2	0
191	6241	42.3	0
191	6241	42.4	0
191	6241	42.5	0
191	6241	42.6	0
191	6241	42.7	0
191	6241	42.8	0
191	6241	42.9	0
191	6241	43	0
191	6241	43.1	0
191	6241	43.2	0
191	6241	43.3	0
191	6241	43.4	0
191	6241	43.5	0
191	6241	43.6	0
191	6241	43.7	0
191	6241	43.8	0
191	6241	43.9	0
191	6241	44	0
191	6241	44.1	0
191	6241	44.2	0
191	6241	44.3	0
191	6241	44.4	0
191	6241	44.5	0
191	6241	44.6	0
191	6241	44.7	0
191	6241	44.8	0
191	6241	44.9	0
191	6241	45	0
191	6241	45.1	0
191	6241	45.2	0
191	6241	45.3	0
191	6241	45.4	0
191	6241	45.5	0
191	6241	45.6	0
191	6241	45.7	0
191	6241	45.8	0
191	6241	45.9	0
191	6241	46	0
191	6241	46.1	0
191	6241	46.2	0
191	6241	46.3	0
191	6241	46.4	0
191	6241	46.5	0
191	6241	46.6	0
191	6241	46.7	0
191	6241	46.8	0
191	6241	46.9	0
191	6241	47	0
191	6241	47.1	0
191	6241	47.2	0
191	6241	47.3	0
191	6241	47.4	0
191	6241	47.5	0
191	6241	47.6	0
191	6241	47.7	0
191	6241	47.8	0
191	6241	47.9	0
191	6241	48	0
191	6241	48.1	0
191	6241	48.2	0
191	6241	48.3	0
191	6241	48.4	0
191	6241	48.5	0
191	6241	48.6	0
191	6241	48.7	0
191	6241	48.8	0
191	6241	48.9	0
191	6241	49	0
191	6241	49.1	0
191	6241	49.2	0
191	6241	49.3	0
191	6241	49.4	0
191	6241	49.5	0
191	6241	49.6	0
191	6241	49.7	0
191	6241	49.8	0
191	6241	49.9	0
191	6241	50	0
191	6241	50.1	0
191	6241	50.2	0
191	6241	50.3	0
191	6241	50.4	0
191	6241	50.5	0
191	6241	50.6	0
191	6241	50.7	0
191	6241	50.8	0
191	6241	50.9	0
191	6241	51	0
191	6241	51.1	0
191	6241	51.2	0
191	6241	51.3	0
191	6241	51.4	0
191	6241	51.5	0
191	6241	51.6	0
191	6241	51.7	0
191	6241	51.8	0
191	6241	51.9	0
191	6241	52	0
191	6241	52.1	0
191	6241	52.2	0
191	6241	52.3	0
191	6241	52.4	0
191	6241	52.5	0
191	6241	52.6	0
191	6241	52.7	0
191	6241	52.8	0
191	6241	52.9	0
191	6241	53	0
191	6241	53.1	0
191	6241	53.2	0
191	6241	53.3	0
191	6241	53.4	0
191	6241	53.5	0
191	6241	53.6	0
191	6241	53.7	0
191	6241	53.8	0
191	6241	53.9	0
191	6241	54	0
191	6241	54.1	0
191	6241	54.2	0
191	6241	54.3	0
191	6241	54.4	0
191	6241	54.5	0
191	6241	54.6	0
191	6241	54.7	0
191	6241	54.8	0
191	6241	54.9	0
191	6241	55	0
191	6241	55.1	0
191	6241	55.2	0
191	6241	55.3	0
191	6241	55.4	0
191	6241	55.5	0
191	6241	55.6	0
191	6241	55.7	0
191	6241	55.8	0
191	6241	55.9	0
191	6241	56	0
191	6241	56.1	0
191	6241	56.2	0
191	6241	56.3	0
191	6241	56.4	0
191	6241	56.5	0
191	6241	56.6	0
191	6241	56.7	0
191	6241	56.8	0
191	6241	56.9	0
191	6241	57	0
191	6241	57.1	0
191	6241	57.2	0
191	6241	57.3	0
191	6241	57.4	0
191	6241	57.5	0
191	6241	57.6	0
191	6241	57.7	0
191	6241	57.8	0
191	6241	57.9	0
191	6241	58	0
191	6241	58.1	0
191	6241	58.2	0
191	6241	58.3	0
191	6241	58.4	0
191	6241	58.5	0
191	6241	58.6	0
191	6241	58.7	0
191	6241	58.8	0
191	6241	58.9	0
191	6241	59	0
191	6241	59.1	0
191	6241	59.2	0
191	6241	59.3	0
191	6241	59.4	0
191	6241	59.5	0
191	6241	59.6	0
191	6241	59.7	0
191	6241	59.8	0
191	6241	59.9	0
191	6241	60	0
191	6241	60.1	0
191	6241	60.2	0
191	6241	60.3	0
191	6241	60.4	0
191	6241	60.5	0
192	6241	0.1	0
192	6241	0.2	0
192	6241	0.3	0
192	6241	0.4	0
192	6241	0.5	0
192	6241	0.6	0
192	6241	0.7	0
192	6241	0.8	0
192	6241	0.9	0
192	6241	1	0
192	6241	1.1	0
192	6241	1.2	0
192	6241	1.3	0
192	6241	1.4	0
192	6241	1.5	0
192	6241	1.6	0
192	6241	1.7	0
192	6241	1.8	0
192	6241	1.9	0
192	6241	2	0
192	6241	2.1	0
192	6241	2.2	0
192	6241	2.3	0
192	6241	2.4	0
192	6241	2.5	0
192	6241	2.6	0
192	6241	2.7	0
192	6241	2.8	0
192	6241	2.9	0
192	6241	3	0
192	6241	3.1	0
192	6241	3.2	0
192	6241	3.3	0
192	6241	3.4	0
192	6241	3.5	0
192	6241	3.6	0
192	6241	3.7	0
192	6241	3.8	0
192	6241	3.9	0
192	6241	4	0
192	6241	4.1	0
192	6241	4.2	0
192	6241	4.3	0
192	6241	4.4	0
192	6241	4.5	0
192	6241	4.6	0
192	6241	4.7	0
192	6241	4.8	0
192	6241	4.9	0
192	6241	5	0
192	6241	5.1	0
192	6241	5.2	0
192	6241	5.3	0
192	6241	5.4	0
192	6241	5.5	0
192	6241	5.6	0
192	6241	5.7	0
192	6241	5.8	0
192	6241	5.9	0
192	6241	6	0
192	6241	6.1	0
192	6241	6.2	0
192	6241	6.3	0
192	6241	6.4	0
192	6241	6.5	0
192	6241	6.6	0
192	6241	6.7	0
192	6241	6.8	0
192	6241	6.9	0
192	6241	7	0
192	6241	7.1	0
192	6241	7.2	0
192	6241	7.3	0
192	6241	7.4	0
192	6241	7.5	0
192	6241	7.6	0
192	6241	7.7	0
192	6241	7.8	0
192	6241	7.9	0
192	6241	8	0
192	6241	8.1	0
192	6241	8.2	0
192	6241	8.3	0
192	6241	8.4	0
192	6241	8.5	0
192	6241	8.6	0
192	6241	8.7	0
192	6241	8.8	0
192	6241	8.9	0
192	6241	9	0
192	6241	9.1	0
192	6241	9.2	0
192	6241	9.3	0
192	6241	9.4	0
192	6241	9.5	0
192	6241	9.6	0
192	6241	9.7	0
192	6241	9.8	0
192	6241	9.9	0
192	6241	10	0
192	6241	10.1	0
192	6241	10.2	0
192	6241	10.3	0
192	6241	10.4	0
192	6241	10.5	0
192	6241	10.6	0
192	6241	10.7	0
192	6241	10.8	0
192	6241	10.9	0
192	6241	11	0
192	6241	11.1	0
192	6241	11.2	0
192	6241	11.3	0
192	6241	11.4	0
192	6241	11.5	0
192	6241	11.6	0
192	6241	11.7	0
192	6241	11.8	0
192	6241	11.9	0
192	6241	12	0
192	6241	12.1	0
192	6241	12.2	0
192	6241	12.3	0
192	6241	12.4	0
192	6241	12.5	0
192	6241	12.6	0
192	6241	12.7	0
192	6241	12.8	0
192	6241	12.9	0
192	6241	13	0
192	6241	13.1	0
192	6241	13.2	0
192	6241	13.3	0
192	6241	13.4	0
192	6241	13.5	0
192	6241	13.6	0
192	6241	13.7	0
192	6241	13.8	0
192	6241	13.9	0
192	6241	14	0
192	6241	14.1	0
192	6241	14.2	0
192	6241	14.3	0
192	6241	14.4	0
192	6241	14.5	0
192	6241	14.6	0
192	6241	14.7	0
192	6241	14.8	0
192	6241	14.9	0
192	6241	15	0
192	6241	15.1	0
192	6241	15.2	0
192	6241	15.3	0
192	6241	15.4	0
192	6241	15.5	0
192	6241	15.6	0
192	6241	15.7	0
192	6241	15.8	0
192	6241	15.9	0
192	6241	16	0
192	6241	16.1	0
192	6241	16.2	0
192	6241	16.3	0
192	6241	16.4	0
192	6241	16.5	0
192	6241	16.6	0
192	6241	16.7	0
192	6241	16.8	0
192	6241	16.9	0
192	6241	17	0
192	6241	17.1	0
192	6241	17.2	0
192	6241	17.3	0
192	6241	17.4	0
192	6241	17.5	0
192	6241	17.6	0
192	6241	17.7	0
192	6241	17.8	0
192	6241	17.9	0
192	6241	18	0
192	6241	18.1	0
192	6241	18.2	0
192	6241	18.3	0
192	6241	18.4	0
192	6241	18.5	0
192	6241	18.6	0
192	6241	18.7	0
192	6241	18.8	0
192	6241	18.9	0
192	6241	19	0
192	6241	19.1	0
192	6241	19.2	0
192	6241	19.3	0
192	6241	19.4	0
192	6241	19.5	0
192	6241	19.6	0
192	6241	19.7	0
192	6241	19.8	0
192	6241	19.9	0
192	6241	20	0
192	6241	20.1	0
192	6241	20.2	0
192	6241	20.3	0
192	6241	20.4	0
192	6241	20.5	0
192	6241	20.6	0
192	6241	20.7	0
192	6241	20.8	0
192	6241	20.9	0
192	6241	21	0
192	6241	21.1	0
192	6241	21.2	0
192	6241	21.3	0
192	6241	21.4	0
192	6241	21.5	0
192	6241	21.6	0
192	6241	21.7	0
192	6241	21.8	0
192	6241	21.9	0
192	6241	22	0
192	6241	22.1	0
192	6241	22.2	0
192	6241	22.3	0
192	6241	22.4	0
192	6241	22.5	0
192	6241	22.6	0
192	6241	22.7	0
192	6241	22.8	0
192	6241	22.9	0
192	6241	23	0
192	6241	23.1	0
192	6241	23.2	0
192	6241	23.3	0
192	6241	23.4	0
192	6241	23.5	0
192	6241	23.6	0
192	6241	23.7	0
192	6241	23.8	0
192	6241	23.9	0
192	6241	24	0
192	6241	24.1	0
192	6241	24.2	0
192	6241	24.3	0
192	6241	24.4	0
192	6241	24.5	0
192	6241	24.6	0
192	6241	24.7	0
192	6241	24.8	0
192	6241	24.9	0
192	6241	25	0
192	6241	25.1	0
192	6241	25.2	0
192	6241	25.3	0
192	6241	25.4	0
192	6241	25.5	0
192	6241	25.6	0
192	6241	25.7	0
192	6241	25.8	0
192	6241	25.9	0
192	6241	26	0
192	6241	26.1	0
192	6241	26.2	0
192	6241	26.3	0
192	6241	26.4	0
192	6241	26.5	0
192	6241	26.6	0
192	6241	26.7	0
192	6241	26.8	0
192	6241	26.9	0
192	6241	27	0
192	6241	27.1	0
192	6241	27.2	0
192	6241	27.3	0
192	6241	27.4	0
192	6241	27.5	0
192	6241	27.6	0
192	6241	27.7	0
192	6241	27.8	0
192	6241	27.9	0
192	6241	28	0
192	6241	28.1	0
192	6241	28.2	0
192	6241	28.3	0
192	6241	28.4	0
192	6241	28.5	0
192	6241	28.6	0
192	6241	28.7	0
192	6241	28.8	0
192	6241	28.9	0
192	6241	29	0
192	6241	29.1	0
192	6241	29.2	0
192	6241	29.3	0
192	6241	29.4	0
192	6241	29.5	0
192	6241	29.6	0
192	6241	29.7	0
192	6241	29.8	0
192	6241	29.9	0
192	6241	30	0
192	6241	30.1	0
192	6241	30.2	0
192	6241	30.3	0
192	6241	30.4	0
192	6241	30.5	0
192	6241	30.6	0
192	6241	30.7	0
192	6241	30.8	0
192	6241	30.9	0
192	6241	31	0
192	6241	31.1	0
192	6241	31.2	0
192	6241	31.3	0
192	6241	31.4	0
192	6241	31.5	0
192	6241	31.6	0
192	6241	31.7	0
192	6241	31.8	0
192	6241	31.9	0
192	6241	32	0
192	6241	32.1	0
192	6241	32.2	0
192	6241	32.3	0
192	6241	32.4	0
192	6241	32.5	0
192	6241	32.6	0
192	6241	32.7	0
192	6241	32.8	0
192	6241	32.9	0
192	6241	33	0
192	6241	33.1	0
192	6241	33.2	0
192	6241	33.3	0
192	6241	33.4	0
192	6241	33.5	0
192	6241	33.6	0
192	6241	33.7	0
192	6241	33.8	0
192	6241	33.9	0
192	6241	34	0
192	6241	34.1	0
192	6241	34.2	0
192	6241	34.3	0
192	6241	34.4	0
192	6241	34.5	0
192	6241	34.6	0
192	6241	34.7	0
192	6241	34.8	0
192	6241	34.9	0
192	6241	35	0
192	6241	35.1	0
192	6241	35.2	0
192	6241	35.3	0
192	6241	35.4	0
192	6241	35.5	0
192	6241	35.6	0
192	6241	35.7	0
192	6241	35.8	0
192	6241	35.9	0
192	6241	36	0
192	6241	36.1	0
192	6241	36.2	0
192	6241	36.3	0
192	6241	36.4	0
192	6241	36.5	0
192	6241	36.6	0
192	6241	36.7	0
192	6241	36.8	0
192	6241	36.9	0
192	6241	37	0
192	6241	37.1	0
192	6241	37.2	0
192	6241	37.3	0
192	6241	37.4	0
192	6241	37.5	0
192	6241	37.6	0
192	6241	37.7	0
192	6241	37.8	0
192	6241	37.9	0
192	6241	38	0
192	6241	38.1	0
192	6241	38.2	0
192	6241	38.3	0
192	6241	38.4	0
192	6241	38.5	0
192	6241	38.6	0
192	6241	38.7	0
192	6241	38.8	0
192	6241	38.9	0
192	6241	39	0
192	6241	39.1	0
192	6241	39.2	0
192	6241	39.3	0
192	6241	39.4	0
192	6241	39.5	0
192	6241	39.6	0
192	6241	39.7	0
192	6241	39.8	0
192	6241	39.9	0
192	6241	40	0
192	6241	40.1	0
192	6241	40.2	0
192	6241	40.3	0
192	6241	40.4	0
192	6241	40.5	0
192	6241	40.6	0
192	6241	40.7	0
192	6241	40.8	0
192	6241	40.9	0
192	6241	41	0
192	6241	41.1	0
192	6241	41.2	0
192	6241	41.3	0
192	6241	41.4	0
192	6241	41.5	0
192	6241	41.6	0
192	6241	41.7	0
192	6241	41.8	0
192	6241	41.9	0
192	6241	42	0
192	6241	42.1	0
192	6241	42.2	0
192	6241	42.3	0
192	6241	42.4	0
192	6241	42.5	0
192	6241	42.6	0
192	6241	42.7	0
192	6241	42.8	0
192	6241	42.9	0
192	6241	43	0
192	6241	43.1	0
192	6241	43.2	0
192	6241	43.3	0
192	6241	43.4	0
192	6241	43.5	0
192	6241	43.6	0
192	6241	43.7	0
192	6241	43.8	0
192	6241	43.9	0
192	6241	44	0
192	6241	44.1	0
192	6241	44.2	0
192	6241	44.3	0
192	6241	44.4	0
192	6241	44.5	0
192	6241	44.6	0
192	6241	44.7	0
192	6241	44.8	0
192	6241	44.9	0
192	6241	45	0
192	6241	45.1	0
192	6241	45.2	0
192	6241	45.3	0
192	6241	45.4	0
192	6241	45.5	0
192	6241	45.6	0
192	6241	45.7	0
192	6241	45.8	0
192	6241	45.9	0
192	6241	46	0
192	6241	46.1	0
192	6241	46.2	0
192	6241	46.3	0
192	6241	46.4	0
192	6241	46.5	0
192	6241	46.6	0
192	6241	46.7	0
192	6241	46.8	0
192	6241	46.9	0
192	6241	47	0
192	6241	47.1	0
192	6241	47.2	0
192	6241	47.3	0
192	6241	47.4	0
192	6241	47.5	0
192	6241	47.6	0
192	6241	47.7	0
192	6241	47.8	0
192	6241	47.9	0
192	6241	48	0
192	6241	48.1	0
192	6241	48.2	0
192	6241	48.3	0
192	6241	48.4	0
192	6241	48.5	0
192	6241	48.6	0
192	6241	48.7	0
192	6241	48.8	0
192	6241	48.9	0
192	6241	49	0
192	6241	49.1	0
192	6241	49.2	0
192	6241	49.3	0
192	6241	49.4	0
192	6241	49.5	0
192	6241	49.6	0
192	6241	49.7	0
192	6241	49.8	0
192	6241	49.9	0
192	6241	50	0
192	6241	50.1	0
192	6241	50.2	0
192	6241	50.3	0
192	6241	50.4	0
192	6241	50.5	0
192	6241	50.6	0
192	6241	50.7	0
192	6241	50.8	0
192	6241	50.9	0
192	6241	51	0
192	6241	51.1	0
192	6241	51.2	0
192	6241	51.3	0
192	6241	51.4	0
192	6241	51.5	0
192	6241	51.6	0
192	6241	51.7	0
192	6241	51.8	0
192	6241	51.9	0
192	6241	52	0
192	6241	52.1	0
192	6241	52.2	0
192	6241	52.3	0
192	6241	52.4	0
192	6241	52.5	0
192	6241	52.6	0
192	6241	52.7	0
192	6241	52.8	0
192	6241	52.9	0
192	6241	53	0
192	6241	53.1	0
192	6241	53.2	0
192	6241	53.3	0
192	6241	53.4	0
192	6241	53.5	0
192	6241	53.6	0
192	6241	53.7	0
192	6241	53.8	0
192	6241	53.9	0
192	6241	54	0
192	6241	54.1	0
192	6241	54.2	0
192	6241	54.3	0
192	6241	54.4	0
192	6241	54.5	0
192	6241	54.6	0
192	6241	54.7	0
192	6241	54.8	0
192	6241	54.9	0
192	6241	55	0
192	6241	55.1	0
192	6241	55.2	0
192	6241	55.3	0
192	6241	55.4	0
192	6241	55.5	0
192	6241	55.6	0
192	6241	55.7	0
192	6241	55.8	0
192	6241	55.9	0
192	6241	56	0
192	6241	56.1	0
192	6241	56.2	0
192	6241	56.3	0
192	6241	56.4	0
192	6241	56.5	0
192	6241	56.6	0
192	6241	56.7	0
192	6241	56.8	0
192	6241	56.9	0
192	6241	57	0
192	6241	57.1	0
192	6241	57.2	0
192	6241	57.3	0
192	6241	57.4	0
192	6241	57.5	0
192	6241	57.6	0
192	6241	57.7	0
192	6241	57.8	0
192	6241	57.9	0
192	6241	58	0
192	6241	58.1	0
192	6241	58.2	0
192	6241	58.3	0
192	6241	58.4	0
192	6241	58.5	0
192	6241	58.6	0
192	6241	58.7	0
192	6241	58.8	0
192	6241	58.9	0
192	6241	59	0
192	6241	59.1	0
192	6241	59.2	0
192	6241	59.3	0
192	6241	59.4	0
192	6241	59.5	0
192	6241	59.6	0
192	6241	59.7	0
192	6241	59.8	0
192	6241	59.9	0
192	6241	60	0
192	6241	60.1	0
192	6241	60.2	0
192	6241	60.3	0
192	6241	60.4	0
192	6241	60.5	0

