version 2
run General-0-20230517-01:07:38-4372
attr configname General
attr datetime 20230517-01:07:38
attr experiment General
attr inifile omnetpp.ini
attr iterationvars ""
attr iterationvarsf ""
attr measurement ""
attr network Scenario
attr processid 4372
attr repetition 0
attr replication #0
attr resultdir results
attr runnumber 0
attr seedset 0
param *.normal_car[*].ipv4.arp.typename "\"Arp\""
param *.normal_car[1].numApps 1
param *.normal_car[1].app[0].typename "\"UdpBasicApp\""
param *.normal_car[1].app[0].destAddresses "\"normal_car[4]\""
param *.normal_car[1].app[0].localPort 5000
param *.normal_car[1].app[0].destPort 5000
param *.normal_car[1].app[0].messageLength 1024B
param *.normal_car[1].app[0].sendInterval 1s
param *.normal_car[1].app[0].startTime 20s
param *.normal_car[1].app[0].packetName "\"UDPData\""
param *.normal_car[*].numApps 1
param *.normal_car[*].app[0].typename "\"UdpSink\""
param *.normal_car[*].app[0].localPort 5000
param *.normal_car[*].routing.deletePeriod 5s
param *.*_car[*].wlan[*].typename "\"AckingWirelessInterface\""
param *.*_car[*].wlan[*].bitrate 2Mbps
param *.*_car[*].wlan[*].mac.headerLength 23B
param *.*_car[*].wlan[*].radio.typename "\"UnitDiskRadio\""
param *.*_car[*].wlan[*].radio.transmitter.headerLength 96b
param *.*_car[*].wlan[*].radio.transmitter.communicationRange 120m
param *.*_car[*].wlan[*].radio.transmitter.interferenceRange 0m
param *.*_car[*].wlan[*].radio.transmitter.detectionRange 0m
param *.*_car[*].wlan[*].radio.receiver.ignoreInterference true
param *.*_car[*].ipv4.configurator.typename "\"HostAutoConfigurator\""
param *.*_car[*].ipv4.configurator.interfaces "\"wlan0\""
param *.*_car[*].ipv4.configurator.mcastGroups "\"224.0.0.1\""
param *.*_car[*].mobility.typename "\"VeinsInetMobility\""
param *.manager.updateInterval 0.1s
param *.manager.launchConfig "xmldoc(\"arcavacatamap.launchd.xml\")"
param *.manager.moduleType "\"normal_car=networkprojectvanet.veins_inet.AodvCar *=networkprojectvanet.veins_inet.AodvCar\""
param *.manager.moduleDisplayString "\"normal_car='i=veins/node/car;is=vs' *='i=veins/node/car;is=vs'\""
param *.manager.moduleName "\"normal_car=normal_car *=normal_car\""
param *.*_car[*].wlan[0].radio.energyConsumer.typename "\"StateBasedEpEnergyConsumer\""
param *.*_car[*].wlan[0].radio.energyConsumer.offPowerConsumption 0mW
param *.*_car[*].wlan[0].radio.energyConsumer.sleepPowerConsumption 1mW
param *.*_car[*].wlan[0].radio.energyConsumer.switchingPowerConsumption 1mW
param *.*_car[*].wlan[0].radio.energyConsumer.receiverIdlePowerConsumption 2mW
param *.*_car[*].wlan[0].radio.energyConsumer.receiverBusyPowerConsumption 5mW
param *.*_car[*].wlan[0].radio.energyConsumer.receiverReceivingPowerConsumption 10mW
param *.*_car[*].wlan[0].radio.energyConsumer.transmitterIdlePowerConsumption 2mW
param *.*_car[*].wlan[0].radio.energyConsumer.transmitterTransmittingPowerConsumption 100mW
param *.*_car[*].energyStorage.typename "\"IdealEpEnergyStorage\""
param *.*_car[*].wlan[0].radio.displayCommunicationRange true
param *.visualizer.networkRouteVisualizer.displayRoutes true

scalar Scenario.radioMedium.propagation "Arrival computation count" 616
scalar Scenario.radioMedium "transmission count" 46
scalar Scenario.radioMedium "signal send count" 616
scalar Scenario.radioMedium "reception computation count" 616
scalar Scenario.radioMedium "interference computation count" 1951
scalar Scenario.radioMedium "reception decision computation count" 166
scalar Scenario.radioMedium "listening decision computation count" 1169
scalar Scenario.radioMedium "reception cache hit" 79.397993311037
attr unit %
scalar Scenario.radioMedium "interference cache hit" 66.666666666667
attr unit %
scalar Scenario.radioMedium "noise cache hit" 0
attr unit %
scalar Scenario.radioMedium "snir cache hit" 50
attr unit %
scalar Scenario.radioMedium "reception decision cache hit" 50
attr unit %
scalar Scenario.radioMedium "reception result cache hit" 0
attr unit %
scalar Scenario.manager roiArea 0
scalar Scenario.normal_car[0].energyStorage residualEnergyCapacity:last -0.14391305786815
attr interpolationmode linear
attr source residualEnergyCapacityChanged
attr title "Residual energy capacity, last"
scalar Scenario.normal_car[0].lo[0].lo rcvdPkFromHl:count 0
attr interpolationmode none
attr source packetReceivedFromUpper
attr title "packets received from higher layer, count"
scalar Scenario.normal_car[0].lo[0].lo rcvdPkFromHl:sum(packetBytes) 0
attr interpolationmode none
attr source packetReceivedFromUpper
attr title "packets received from higher layer, sum(packetBytes)"
scalar Scenario.normal_car[0].lo[0].lo passedUpPk:count 0
attr interpolationmode none
attr source packetSentToUpper
attr title "packets passed to higher layer, count"
scalar Scenario.normal_car[0].lo[0].lo passedUpPk:sum(packetBytes) 0
attr interpolationmode none
attr source packetSentToUpper
attr title "packets passed to higher layer, sum(packetBytes)"
scalar Scenario.normal_car[0].wlan[0].mac.queue packetPopped:count 0
attr interpolationmode none
attr title "packet popped, count"
scalar Scenario.normal_car[0].wlan[0].mac.queue packetPopped:sum(packetBytes) 0
attr interpolationmode none
attr title "packet popped, sum(packetBytes)"
statistic Scenario.normal_car[0].wlan[0].mac.queue queueingTime:histogram
field count 0
field mean -nan
field stddev nan
field min nan
field max nan
field sum 0
field sqrsum 0
attr interpolationmode none
attr source queueingTime(packetPopped)
attr title "queueing times, histogram"
attr unit s
bin	-inf	0
bin	0	0
bin	1	0
scalar Scenario.normal_car[0].wlan[0].mac.queue queueLength:max nan
attr interpolationmode sample-hold
attr source "count(packetPushed) - count(packetPopped) - count(packetRemoved) - count(packetDropped)"
attr title "queue length, max"
scalar Scenario.normal_car[0].wlan[0].mac.queue queueLength:timeavg -nan
attr interpolationmode sample-hold
attr source "count(packetPushed) - count(packetPopped) - count(packetRemoved) - count(packetDropped)"
attr title "queue length, timeavg"
scalar Scenario.normal_car[0].wlan[0].mac.queue packetPushed:count 0
attr interpolationmode none
attr title "packet pushed, count"
scalar Scenario.normal_car[0].wlan[0].mac.queue packetPushed:sum(packetBytes) 0
attr interpolationmode none
attr title "packet pushed, sum(packetBytes)"
scalar Scenario.normal_car[0].wlan[0].mac.queue packetDropQueueOverflow:count 0
attr interpolationmode none
attr source packetDropReasonIsQueueOverflow(packetDropped)
attr title "packet drops: queue overflow, count"
scalar Scenario.normal_car[0].wlan[0].mac.queue packetDropQueueOverflow:sum(packetBytes) 0
attr interpolationmode none
attr source packetDropReasonIsQueueOverflow(packetDropped)
attr title "packet drops: queue overflow, sum(packetBytes)"
scalar Scenario.normal_car[0].wlan[0].mac.queue packetRemoved:count 0
attr interpolationmode none
attr title "packets removed, count"
scalar Scenario.normal_car[0].wlan[0].mac.queue packetRemoved:sum(packetBytes) 0
attr interpolationmode none
attr title "packets removed, sum(packetBytes)"
scalar Scenario.normal_car[0].wlan[0].mac rcvdPkFromLl:count 9
attr interpolationmode none
attr source packetReceivedFromLower
attr title "packets received from lower layer, count"
scalar Scenario.normal_car[0].wlan[0].mac rcvdPkFromLl:sum(packetBytes) 9675
attr interpolationmode none
attr source packetReceivedFromLower
attr title "packets received from lower layer, sum(packetBytes)"
scalar Scenario.normal_car[0].wlan[0].mac sentDownPk:count 0
attr interpolationmode none
attr source packetSentToLower
attr title "packets sent to lower layer, count"
scalar Scenario.normal_car[0].wlan[0].mac sentDownPk:sum(packetBytes) 0
attr interpolationmode none
attr source packetSentToLower
attr title "packets sent to lower layer, sum(packetBytes)"
scalar Scenario.normal_car[0].wlan[0].mac rcvdPkFromHl:count 0
attr interpolationmode none
attr source packetReceivedFromUpper
attr title "packets received from higher layer, count"
scalar Scenario.normal_car[0].wlan[0].mac rcvdPkFromHl:sum(packetBytes) 0
attr interpolationmode none
attr source packetReceivedFromUpper
attr title "packets received from higher layer, sum(packetBytes)"
scalar Scenario.normal_car[0].wlan[0].mac passedUpPk:count 0
attr interpolationmode none
attr source packetSentToUpper
attr title "packets passed to higher layer, count"
scalar Scenario.normal_car[0].wlan[0].mac passedUpPk:sum(packetBytes) 0
attr interpolationmode none
attr source packetSentToUpper
attr title "packets passed to higher layer, sum(packetBytes)"
scalar Scenario.normal_car[0].wlan[0].mac packetDropIncorrectlyReceived:count 0
attr interpolationmode none
attr source packetDropReasonIsIncorrectlyReceived(packetDropped)
attr title "packet drop: incorrectly received, count"
scalar Scenario.normal_car[0].wlan[0].mac packetDropIncorrectlyReceived:sum(packetBytes) 0
attr interpolationmode none
attr source packetDropReasonIsIncorrectlyReceived(packetDropped)
attr title "packet drop: incorrectly received, sum(packetBytes)"
scalar Scenario.normal_car[0].wlan[0].mac packetDropInterfaceDown:count 0
attr interpolationmode none
attr source packetDropReasonIsInterfaceDown(packetDropped)
attr title "packet drop: interface down, count"
scalar Scenario.normal_car[0].wlan[0].mac packetDropInterfaceDown:sum(packetBytes) 0
attr interpolationmode none
attr source packetDropReasonIsInterfaceDown(packetDropped)
attr title "packet drop: interface down, sum(packetBytes)"
scalar Scenario.normal_car[0].wlan[0].mac packetDropNotAddressedToUs:count 9
attr interpolationmode none
attr source packetDropReasonIsNotAddressedToUs(packetDropped)
attr title "packet drop: not addressed to us, count"
scalar Scenario.normal_car[0].wlan[0].mac packetDropNotAddressedToUs:sum(packetBytes) 9675
attr interpolationmode none
attr source packetDropReasonIsNotAddressedToUs(packetDropped)
attr title "packet drop: not addressed to us, sum(packetBytes)"
scalar Scenario.normal_car[0].wlan[0].mac linkBroken:count 0
attr interpolationmode none
attr source linkBroken
attr title "link break, count"
scalar Scenario.normal_car[0].wlan[0].radio radioMode:count 3
attr interpolationmode sample-hold
attr source radioModeChanged
attr title "Radio mode, count"
scalar Scenario.normal_car[0].wlan[0].radio receptionState:count 19
attr interpolationmode sample-hold
attr source receptionStateChanged
attr title "Radio reception state, count"
scalar Scenario.normal_car[0].wlan[0].radio transmissionState:count 1
attr interpolationmode sample-hold
attr source transmissionStateChanged
attr title "Radio transmission state, count"
statistic Scenario.normal_car[0].wlan[0].radio minSnir:histogram
field count 0
field mean -nan
field stddev nan
field min nan
field max nan
field sum 0
field sqrsum 0
attr source minimumSnir(packetSentToUpper)
attr title "Min SNIR, histogram"
bin	-inf	0
bin	0	0
bin	1	0
statistic Scenario.normal_car[0].wlan[0].radio packetErrorRate:histogram
field count 9
field mean 0
field stddev 0
field min 0
field max 0
field sum 0
field sqrsum 0
attr source packetErrorRate(packetSentToUpper)
attr title "Packet error rate, histogram"
bin	-inf	0
bin	-0.5	0
bin	-0.48	0
bin	-0.46	0
bin	-0.44	0
bin	-0.42	0
bin	-0.4	0
bin	-0.38	0
bin	-0.36	0
bin	-0.34	0
bin	-0.32	0
bin	-0.3	0
bin	-0.28	0
bin	-0.26	0
bin	-0.24	0
bin	-0.22	0
bin	-0.2	0
bin	-0.18	0
bin	-0.16	0
bin	-0.14	0
bin	-0.12	0
bin	-0.1	0
bin	-0.08	0
bin	-0.06	0
bin	-0.04	0
bin	-0.02	0
bin	0	9
bin	0.02	0
bin	0.04	0
bin	0.06	0
bin	0.08	0
bin	0.1	0
bin	0.12	0
bin	0.14	0
bin	0.16	0
bin	0.18	0
bin	0.2	0
bin	0.22	0
bin	0.24	0
bin	0.26	0
bin	0.28	0
bin	0.3	0
bin	0.32	0
bin	0.34	0
bin	0.36	0
bin	0.38	0
bin	0.4	0
bin	0.42	0
bin	0.44	0
bin	0.46	0
bin	0.48	0
bin	0.5	0
statistic Scenario.normal_car[0].wlan[0].radio bitErrorRate:histogram
field count 9
field mean 0
field stddev 0
field min 0
field max 0
field sum 0
field sqrsum 0
attr source bitErrorRate(packetSentToUpper)
attr title "Bit error rate, histogram"
bin	-inf	0
bin	-0.5	0
bin	-0.48	0
bin	-0.46	0
bin	-0.44	0
bin	-0.42	0
bin	-0.4	0
bin	-0.38	0
bin	-0.36	0
bin	-0.34	0
bin	-0.32	0
bin	-0.3	0
bin	-0.28	0
bin	-0.26	0
bin	-0.24	0
bin	-0.22	0
bin	-0.2	0
bin	-0.18	0
bin	-0.16	0
bin	-0.14	0
bin	-0.12	0
bin	-0.1	0
bin	-0.08	0
bin	-0.06	0
bin	-0.04	0
bin	-0.02	0
bin	0	9
bin	0.02	0
bin	0.04	0
bin	0.06	0
bin	0.08	0
bin	0.1	0
bin	0.12	0
bin	0.14	0
bin	0.16	0
bin	0.18	0
bin	0.2	0
bin	0.22	0
bin	0.24	0
bin	0.26	0
bin	0.28	0
bin	0.3	0
bin	0.32	0
bin	0.34	0
bin	0.36	0
bin	0.38	0
bin	0.4	0
bin	0.42	0
bin	0.44	0
bin	0.46	0
bin	0.48	0
bin	0.5	0
statistic Scenario.normal_car[0].wlan[0].radio symbolErrorRate:histogram
field count 9
field mean 0
field stddev 0
field min 0
field max 0
field sum 0
field sqrsum 0
attr source symbolErrorRate(packetSentToUpper)
attr title "Symbol error rate, histogram"
bin	-inf	0
bin	-0.5	0
bin	-0.48	0
bin	-0.46	0
bin	-0.44	0
bin	-0.42	0
bin	-0.4	0
bin	-0.38	0
bin	-0.36	0
bin	-0.34	0
bin	-0.32	0
bin	-0.3	0
bin	-0.28	0
bin	-0.26	0
bin	-0.24	0
bin	-0.22	0
bin	-0.2	0
bin	-0.18	0
bin	-0.16	0
bin	-0.14	0
bin	-0.12	0
bin	-0.1	0
bin	-0.08	0
bin	-0.06	0
bin	-0.04	0
bin	-0.02	0
bin	0	9
bin	0.02	0
bin	0.04	0
bin	0.06	0
bin	0.08	0
bin	0.1	0
bin	0.12	0
bin	0.14	0
bin	0.16	0
bin	0.18	0
bin	0.2	0
bin	0.22	0
bin	0.24	0
bin	0.26	0
bin	0.28	0
bin	0.3	0
bin	0.32	0
bin	0.34	0
bin	0.36	0
bin	0.38	0
bin	0.4	0
bin	0.42	0
bin	0.44	0
bin	0.46	0
bin	0.48	0
bin	0.5	0
scalar Scenario.normal_car[0].ipv4.ip packetDropAddressResolutionFailed:count 0
attr interpolationmode none
attr source packetDropReasonIsAddressResolutionFailed(packetDropped)
attr title "packet drop: address resolution failed, count"
scalar Scenario.normal_car[0].ipv4.ip packetDropAddressResolutionFailed:sum(packetBytes) 0
attr interpolationmode none
attr source packetDropReasonIsAddressResolutionFailed(packetDropped)
attr title "packet drop: address resolution failed, sum(packetBytes)"
scalar Scenario.normal_car[0].ipv4.ip packetDropHopLimitReached:count 0
attr interpolationmode none
attr source packetDropReasonIsHopLimitReached(packetDropped)
attr title "packet drop: hop limit reached, count"
scalar Scenario.normal_car[0].ipv4.ip packetDropHopLimitReached:sum(packetBytes) 0
attr interpolationmode none
attr source packetDropReasonIsHopLimitReached(packetDropped)
attr title "packet drop: hop limit reached, sum(packetBytes)"
scalar Scenario.normal_car[0].ipv4.ip packetDropForwardingDisabled:count 0
attr interpolationmode none
attr source packetDropReasonIsForwardingDisabled(packetDropped)
attr title "packet drop: forwarding disabled, count"
scalar Scenario.normal_car[0].ipv4.ip packetDropForwardingDisabled:sum(packetBytes) 0
attr interpolationmode none
attr source packetDropReasonIsForwardingDisabled(packetDropped)
attr title "packet drop: forwarding disabled, sum(packetBytes)"
scalar Scenario.normal_car[0].ipv4.ip packetDropNoInterfaceFound:count 0
attr interpolationmode none
attr source packetDropReasonIsNoInterfaceFound(packetDropped)
attr title "packet drop: no interface found, count"
scalar Scenario.normal_car[0].ipv4.ip packetDropNoInterfaceFound:sum(packetBytes) 0
attr interpolationmode none
attr source packetDropReasonIsNoInterfaceFound(packetDropped)
attr title "packet drop: no interface found, sum(packetBytes)"
scalar Scenario.normal_car[0].ipv4.ip packetDropNoRouteFound:count 0
attr interpolationmode none
attr source packetDropReasonIsNoRouteFound(packetDropped)
attr title "packet drop: no route found, count"
scalar Scenario.normal_car[0].ipv4.ip packetDropNoRouteFound:sum(packetBytes) 0
attr interpolationmode none
attr source packetDropReasonIsNoRouteFound(packetDropped)
attr title "packet drop: no route found, sum(packetBytes)"
scalar Scenario.normal_car[0].ipv4.ip packetDropUndefined:count 0
attr interpolationmode none
attr source packetDropReasonIsUndefined(packetDropped)
attr title "packet drop: undefined, count"
scalar Scenario.normal_car[0].ipv4.ip packetDropUndefined:sum(packetBytes) 0
attr interpolationmode none
attr source packetDropReasonIsUndefined(packetDropped)
attr title "packet drop: undefined, sum(packetBytes)"
scalar Scenario.normal_car[0].ipv4.arp arpResolutionFailed:count 0
attr title "ARP failed resolutions, count"
scalar Scenario.normal_car[0].ipv4.arp arpResolutionCompleted:count 0
attr title "ARP completed resolutions, count"
scalar Scenario.normal_car[0].ipv4.arp arpResolutionInitiated:count 0
attr title "ARP initiated resolutions, count"
scalar Scenario.normal_car[0].ipv4.arp arpReplySent:count 0
attr source arpReplySent
attr title "ARP replies sent, count"
scalar Scenario.normal_car[0].ipv4.arp arpReplySent:sum(packetBytes) 0
attr source arpReplySent
attr title "ARP replies sent, sum(packetBytes)"
scalar Scenario.normal_car[0].ipv4.arp arpRequestSent:count 0
attr source arpRequestSent
attr title "ARP request sent, count"
scalar Scenario.normal_car[0].ipv4.arp arpRequestSent:sum(packetBytes) 0
attr source arpRequestSent
attr title "ARP request sent, sum(packetBytes)"
scalar Scenario.normal_car[0].udp packetReceived:count 0
attr interpolationmode none
attr source packetReceived
attr title "packets received, count"
scalar Scenario.normal_car[0].udp packetReceived:sum(packetBytes) 0
attr interpolationmode none
attr source packetReceived
attr title "packets received, sum(packetBytes)"
scalar Scenario.normal_car[0].udp packetSent:count 0
attr interpolationmode none
attr source packetSent
attr title "packets sent, count"
scalar Scenario.normal_car[0].udp packetSent:sum(packetBytes) 0
attr interpolationmode none
attr source packetSent
attr title "packets sent, sum(packetBytes)"
scalar Scenario.normal_car[0].udp passedUpPk:count 0
attr interpolationmode none
attr source packetSentToUpper
attr title "packets passed up, count"
scalar Scenario.normal_car[0].udp droppedPkWrongPort:count 0
attr interpolationmode none
attr source packetDropReasonIsNoPortFound(packetDropped)
attr title "packets dropped (wrong port), count"
scalar Scenario.normal_car[0].udp droppedPkBadChecksum:count 0
attr interpolationmode none
attr source packetDropReasonIsIncorrectlyReceived(packetDropped)
attr title "packets dropped (checksum error), count"
scalar Scenario.normal_car[0].app[0] packetReceived:count 0
attr interpolationmode none
attr source packetReceived
attr title "packets received, count"
scalar Scenario.normal_car[0].app[0] packetReceived:sum(packetBytes) 0
attr interpolationmode none
attr source packetReceived
attr title "packets received, sum(packetBytes)"
statistic Scenario.normal_car[0].app[0] endToEndDelay:histogram
field count 0
field mean -nan
field stddev nan
field min nan
field max nan
field sum 0
field sqrsum 0
attr interpolationmode none
attr source dataAge(packetReceived)
attr title "end-to-end delay, histogram"
attr unit s
bin	-inf	0
bin	0	0
bin	1	0
scalar Scenario.normal_car[1].energyStorage residualEnergyCapacity:last -0.257153912
attr interpolationmode linear
attr source residualEnergyCapacityChanged
attr title "Residual energy capacity, last"
scalar Scenario.normal_car[1].lo[0].lo rcvdPkFromHl:count 0
attr interpolationmode none
attr source packetReceivedFromUpper
attr title "packets received from higher layer, count"
scalar Scenario.normal_car[1].lo[0].lo rcvdPkFromHl:sum(packetBytes) 0
attr interpolationmode none
attr source packetReceivedFromUpper
attr title "packets received from higher layer, sum(packetBytes)"
scalar Scenario.normal_car[1].lo[0].lo passedUpPk:count 0
attr interpolationmode none
attr source packetSentToUpper
attr title "packets passed to higher layer, count"
scalar Scenario.normal_car[1].lo[0].lo passedUpPk:sum(packetBytes) 0
attr interpolationmode none
attr source packetSentToUpper
attr title "packets passed to higher layer, sum(packetBytes)"
scalar Scenario.normal_car[1].wlan[0].mac.queue packetPopped:count 43
attr interpolationmode none
attr title "packet popped, count"
scalar Scenario.normal_car[1].wlan[0].mac.queue packetPopped:sum(packetBytes) 43212
attr interpolationmode none
attr title "packet popped, sum(packetBytes)"
statistic Scenario.normal_car[1].wlan[0].mac.queue queueingTime:histogram
field count 43
field mean 0
field stddev 0
field min 0
field max 0
field sum 0
field sqrsum 0
attr interpolationmode none
attr source queueingTime(packetPopped)
attr title "queueing times, histogram"
attr unit s
bin	-inf	0
bin	-0.5	0
bin	-0.48	0
bin	-0.46	0
bin	-0.44	0
bin	-0.42	0
bin	-0.4	0
bin	-0.38	0
bin	-0.36	0
bin	-0.34	0
bin	-0.32	0
bin	-0.3	0
bin	-0.28	0
bin	-0.26	0
bin	-0.24	0
bin	-0.22	0
bin	-0.2	0
bin	-0.18	0
bin	-0.16	0
bin	-0.14	0
bin	-0.12	0
bin	-0.1	0
bin	-0.08	0
bin	-0.06	0
bin	-0.04	0
bin	-0.02	0
bin	0	43
bin	0.02	0
bin	0.04	0
bin	0.06	0
bin	0.08	0
bin	0.1	0
bin	0.12	0
bin	0.14	0
bin	0.16	0
bin	0.18	0
bin	0.2	0
bin	0.22	0
bin	0.24	0
bin	0.26	0
bin	0.28	0
bin	0.3	0
bin	0.32	0
bin	0.34	0
bin	0.36	0
bin	0.38	0
bin	0.4	0
bin	0.42	0
bin	0.44	0
bin	0.46	0
bin	0.48	0
bin	0.5	0
scalar Scenario.normal_car[1].wlan[0].mac.queue queueLength:max 1
attr interpolationmode sample-hold
attr source "count(packetPushed) - count(packetPopped) - count(packetRemoved) - count(packetDropped)"
attr title "queue length, max"
scalar Scenario.normal_car[1].wlan[0].mac.queue queueLength:timeavg 0
attr interpolationmode sample-hold
attr source "count(packetPushed) - count(packetPopped) - count(packetRemoved) - count(packetDropped)"
attr title "queue length, timeavg"
scalar Scenario.normal_car[1].wlan[0].mac.queue packetPushed:count 43
attr interpolationmode none
attr title "packet pushed, count"
scalar Scenario.normal_car[1].wlan[0].mac.queue packetPushed:sum(packetBytes) 43212
attr interpolationmode none
attr title "packet pushed, sum(packetBytes)"
scalar Scenario.normal_car[1].wlan[0].mac.queue packetDropQueueOverflow:count 0
attr interpolationmode none
attr source packetDropReasonIsQueueOverflow(packetDropped)
attr title "packet drops: queue overflow, count"
scalar Scenario.normal_car[1].wlan[0].mac.queue packetDropQueueOverflow:sum(packetBytes) 0
attr interpolationmode none
attr source packetDropReasonIsQueueOverflow(packetDropped)
attr title "packet drops: queue overflow, sum(packetBytes)"
scalar Scenario.normal_car[1].wlan[0].mac.queue packetRemoved:count 0
attr interpolationmode none
attr title "packets removed, count"
scalar Scenario.normal_car[1].wlan[0].mac.queue packetRemoved:sum(packetBytes) 0
attr interpolationmode none
attr title "packets removed, sum(packetBytes)"
scalar Scenario.normal_car[1].wlan[0].mac rcvdPkFromLl:count 3
attr interpolationmode none
attr source packetReceivedFromLower
attr title "packets received from lower layer, count"
scalar Scenario.normal_car[1].wlan[0].mac rcvdPkFromLl:sum(packetBytes) 197
attr interpolationmode none
attr source packetReceivedFromLower
attr title "packets received from lower layer, sum(packetBytes)"
scalar Scenario.normal_car[1].wlan[0].mac sentDownPk:count 43
attr interpolationmode none
attr source packetSentToLower
attr title "packets sent to lower layer, count"
scalar Scenario.normal_car[1].wlan[0].mac sentDownPk:sum(packetBytes) 44201
attr interpolationmode none
attr source packetSentToLower
attr title "packets sent to lower layer, sum(packetBytes)"
scalar Scenario.normal_car[1].wlan[0].mac rcvdPkFromHl:count 43
attr interpolationmode none
attr source packetReceivedFromUpper
attr title "packets received from higher layer, count"
scalar Scenario.normal_car[1].wlan[0].mac rcvdPkFromHl:sum(packetBytes) 43212
attr interpolationmode none
attr source packetReceivedFromUpper
attr title "packets received from higher layer, sum(packetBytes)"
scalar Scenario.normal_car[1].wlan[0].mac passedUpPk:count 3
attr interpolationmode none
attr source packetSentToUpper
attr title "packets passed to higher layer, count"
scalar Scenario.normal_car[1].wlan[0].mac passedUpPk:sum(packetBytes) 128
attr interpolationmode none
attr source packetSentToUpper
attr title "packets passed to higher layer, sum(packetBytes)"
scalar Scenario.normal_car[1].wlan[0].mac packetDropIncorrectlyReceived:count 0
attr interpolationmode none
attr source packetDropReasonIsIncorrectlyReceived(packetDropped)
attr title "packet drop: incorrectly received, count"
scalar Scenario.normal_car[1].wlan[0].mac packetDropIncorrectlyReceived:sum(packetBytes) 0
attr interpolationmode none
attr source packetDropReasonIsIncorrectlyReceived(packetDropped)
attr title "packet drop: incorrectly received, sum(packetBytes)"
scalar Scenario.normal_car[1].wlan[0].mac packetDropInterfaceDown:count 0
attr interpolationmode none
attr source packetDropReasonIsInterfaceDown(packetDropped)
attr title "packet drop: interface down, count"
scalar Scenario.normal_car[1].wlan[0].mac packetDropInterfaceDown:sum(packetBytes) 0
attr interpolationmode none
attr source packetDropReasonIsInterfaceDown(packetDropped)
attr title "packet drop: interface down, sum(packetBytes)"
scalar Scenario.normal_car[1].wlan[0].mac packetDropNotAddressedToUs:count 0
attr interpolationmode none
attr source packetDropReasonIsNotAddressedToUs(packetDropped)
attr title "packet drop: not addressed to us, count"
scalar Scenario.normal_car[1].wlan[0].mac packetDropNotAddressedToUs:sum(packetBytes) 0
attr interpolationmode none
attr source packetDropReasonIsNotAddressedToUs(packetDropped)
attr title "packet drop: not addressed to us, sum(packetBytes)"
scalar Scenario.normal_car[1].wlan[0].mac linkBroken:count 0
attr interpolationmode none
attr source linkBroken
attr title "link break, count"
scalar Scenario.normal_car[1].wlan[0].radio radioMode:count 3
attr interpolationmode sample-hold
attr source radioModeChanged
attr title "Radio mode, count"
scalar Scenario.normal_car[1].wlan[0].radio receptionState:count 7
attr interpolationmode sample-hold
attr source receptionStateChanged
attr title "Radio reception state, count"
scalar Scenario.normal_car[1].wlan[0].radio transmissionState:count 87
attr interpolationmode sample-hold
attr source transmissionStateChanged
attr title "Radio transmission state, count"
statistic Scenario.normal_car[1].wlan[0].radio minSnir:histogram
field count 0
field mean -nan
field stddev nan
field min nan
field max nan
field sum 0
field sqrsum 0
attr source minimumSnir(packetSentToUpper)
attr title "Min SNIR, histogram"
bin	-inf	0
bin	0	0
bin	1	0
statistic Scenario.normal_car[1].wlan[0].radio packetErrorRate:histogram
field count 3
field mean 0
field stddev 0
field min 0
field max 0
field sum 0
field sqrsum 0
attr source packetErrorRate(packetSentToUpper)
attr title "Packet error rate, histogram"
bin	-inf	0
bin	-0.5	0
bin	-0.48	0
bin	-0.46	0
bin	-0.44	0
bin	-0.42	0
bin	-0.4	0
bin	-0.38	0
bin	-0.36	0
bin	-0.34	0
bin	-0.32	0
bin	-0.3	0
bin	-0.28	0
bin	-0.26	0
bin	-0.24	0
bin	-0.22	0
bin	-0.2	0
bin	-0.18	0
bin	-0.16	0
bin	-0.14	0
bin	-0.12	0
bin	-0.1	0
bin	-0.08	0
bin	-0.06	0
bin	-0.04	0
bin	-0.02	0
bin	0	3
bin	0.02	0
bin	0.04	0
bin	0.06	0
bin	0.08	0
bin	0.1	0
bin	0.12	0
bin	0.14	0
bin	0.16	0
bin	0.18	0
bin	0.2	0
bin	0.22	0
bin	0.24	0
bin	0.26	0
bin	0.28	0
bin	0.3	0
bin	0.32	0
bin	0.34	0
bin	0.36	0
bin	0.38	0
bin	0.4	0
bin	0.42	0
bin	0.44	0
bin	0.46	0
bin	0.48	0
bin	0.5	0
statistic Scenario.normal_car[1].wlan[0].radio bitErrorRate:histogram
field count 3
field mean 0
field stddev 0
field min 0
field max 0
field sum 0
field sqrsum 0
attr source bitErrorRate(packetSentToUpper)
attr title "Bit error rate, histogram"
bin	-inf	0
bin	-0.5	0
bin	-0.48	0
bin	-0.46	0
bin	-0.44	0
bin	-0.42	0
bin	-0.4	0
bin	-0.38	0
bin	-0.36	0
bin	-0.34	0
bin	-0.32	0
bin	-0.3	0
bin	-0.28	0
bin	-0.26	0
bin	-0.24	0
bin	-0.22	0
bin	-0.2	0
bin	-0.18	0
bin	-0.16	0
bin	-0.14	0
bin	-0.12	0
bin	-0.1	0
bin	-0.08	0
bin	-0.06	0
bin	-0.04	0
bin	-0.02	0
bin	0	3
bin	0.02	0
bin	0.04	0
bin	0.06	0
bin	0.08	0
bin	0.1	0
bin	0.12	0
bin	0.14	0
bin	0.16	0
bin	0.18	0
bin	0.2	0
bin	0.22	0
bin	0.24	0
bin	0.26	0
bin	0.28	0
bin	0.3	0
bin	0.32	0
bin	0.34	0
bin	0.36	0
bin	0.38	0
bin	0.4	0
bin	0.42	0
bin	0.44	0
bin	0.46	0
bin	0.48	0
bin	0.5	0
statistic Scenario.normal_car[1].wlan[0].radio symbolErrorRate:histogram
field count 3
field mean 0
field stddev 0
field min 0
field max 0
field sum 0
field sqrsum 0
attr source symbolErrorRate(packetSentToUpper)
attr title "Symbol error rate, histogram"
bin	-inf	0
bin	-0.5	0
bin	-0.48	0
bin	-0.46	0
bin	-0.44	0
bin	-0.42	0
bin	-0.4	0
bin	-0.38	0
bin	-0.36	0
bin	-0.34	0
bin	-0.32	0
bin	-0.3	0
bin	-0.28	0
bin	-0.26	0
bin	-0.24	0
bin	-0.22	0
bin	-0.2	0
bin	-0.18	0
bin	-0.16	0
bin	-0.14	0
bin	-0.12	0
bin	-0.1	0
bin	-0.08	0
bin	-0.06	0
bin	-0.04	0
bin	-0.02	0
bin	0	3
bin	0.02	0
bin	0.04	0
bin	0.06	0
bin	0.08	0
bin	0.1	0
bin	0.12	0
bin	0.14	0
bin	0.16	0
bin	0.18	0
bin	0.2	0
bin	0.22	0
bin	0.24	0
bin	0.26	0
bin	0.28	0
bin	0.3	0
bin	0.32	0
bin	0.34	0
bin	0.36	0
bin	0.38	0
bin	0.4	0
bin	0.42	0
bin	0.44	0
bin	0.46	0
bin	0.48	0
bin	0.5	0
scalar Scenario.normal_car[1].ipv4.ip packetDropAddressResolutionFailed:count 0
attr interpolationmode none
attr source packetDropReasonIsAddressResolutionFailed(packetDropped)
attr title "packet drop: address resolution failed, count"
scalar Scenario.normal_car[1].ipv4.ip packetDropAddressResolutionFailed:sum(packetBytes) 0
attr interpolationmode none
attr source packetDropReasonIsAddressResolutionFailed(packetDropped)
attr title "packet drop: address resolution failed, sum(packetBytes)"
scalar Scenario.normal_car[1].ipv4.ip packetDropHopLimitReached:count 0
attr interpolationmode none
attr source packetDropReasonIsHopLimitReached(packetDropped)
attr title "packet drop: hop limit reached, count"
scalar Scenario.normal_car[1].ipv4.ip packetDropHopLimitReached:sum(packetBytes) 0
attr interpolationmode none
attr source packetDropReasonIsHopLimitReached(packetDropped)
attr title "packet drop: hop limit reached, sum(packetBytes)"
scalar Scenario.normal_car[1].ipv4.ip packetDropForwardingDisabled:count 0
attr interpolationmode none
attr source packetDropReasonIsForwardingDisabled(packetDropped)
attr title "packet drop: forwarding disabled, count"
scalar Scenario.normal_car[1].ipv4.ip packetDropForwardingDisabled:sum(packetBytes) 0
attr interpolationmode none
attr source packetDropReasonIsForwardingDisabled(packetDropped)
attr title "packet drop: forwarding disabled, sum(packetBytes)"
scalar Scenario.normal_car[1].ipv4.ip packetDropNoInterfaceFound:count 0
attr interpolationmode none
attr source packetDropReasonIsNoInterfaceFound(packetDropped)
attr title "packet drop: no interface found, count"
scalar Scenario.normal_car[1].ipv4.ip packetDropNoInterfaceFound:sum(packetBytes) 0
attr interpolationmode none
attr source packetDropReasonIsNoInterfaceFound(packetDropped)
attr title "packet drop: no interface found, sum(packetBytes)"
scalar Scenario.normal_car[1].ipv4.ip packetDropNoRouteFound:count 0
attr interpolationmode none
attr source packetDropReasonIsNoRouteFound(packetDropped)
attr title "packet drop: no route found, count"
scalar Scenario.normal_car[1].ipv4.ip packetDropNoRouteFound:sum(packetBytes) 0
attr interpolationmode none
attr source packetDropReasonIsNoRouteFound(packetDropped)
attr title "packet drop: no route found, sum(packetBytes)"
scalar Scenario.normal_car[1].ipv4.ip packetDropUndefined:count 0
attr interpolationmode none
attr source packetDropReasonIsUndefined(packetDropped)
attr title "packet drop: undefined, count"
scalar Scenario.normal_car[1].ipv4.ip packetDropUndefined:sum(packetBytes) 0
attr interpolationmode none
attr source packetDropReasonIsUndefined(packetDropped)
attr title "packet drop: undefined, sum(packetBytes)"
scalar Scenario.normal_car[1].ipv4.arp arpResolutionFailed:count 0
attr title "ARP failed resolutions, count"
scalar Scenario.normal_car[1].ipv4.arp arpResolutionCompleted:count 1
attr title "ARP completed resolutions, count"
scalar Scenario.normal_car[1].ipv4.arp arpResolutionInitiated:count 0
attr title "ARP initiated resolutions, count"
scalar Scenario.normal_car[1].ipv4.arp arpReplySent:count 1
attr source arpReplySent
attr title "ARP replies sent, count"
scalar Scenario.normal_car[1].ipv4.arp arpReplySent:sum(packetBytes) 28
attr source arpReplySent
attr title "ARP replies sent, sum(packetBytes)"
scalar Scenario.normal_car[1].ipv4.arp arpRequestSent:count 0
attr source arpRequestSent
attr title "ARP request sent, count"
scalar Scenario.normal_car[1].ipv4.arp arpRequestSent:sum(packetBytes) 0
attr source arpRequestSent
attr title "ARP request sent, sum(packetBytes)"
scalar Scenario.normal_car[1].udp packetReceived:count 2
attr interpolationmode none
attr source packetReceived
attr title "packets received, count"
scalar Scenario.normal_car[1].udp packetReceived:sum(packetBytes) 60
attr interpolationmode none
attr source packetReceived
attr title "packets received, sum(packetBytes)"
scalar Scenario.normal_car[1].udp packetSent:count 42
attr interpolationmode none
attr source packetSent
attr title "packets sent, count"
scalar Scenario.normal_car[1].udp packetSent:sum(packetBytes) 42344
attr interpolationmode none
attr source packetSent
attr title "packets sent, sum(packetBytes)"
scalar Scenario.normal_car[1].udp passedUpPk:count 2
attr interpolationmode none
attr source packetSentToUpper
attr title "packets passed up, count"
scalar Scenario.normal_car[1].udp droppedPkWrongPort:count 0
attr interpolationmode none
attr source packetDropReasonIsNoPortFound(packetDropped)
attr title "packets dropped (wrong port), count"
scalar Scenario.normal_car[1].udp droppedPkBadChecksum:count 0
attr interpolationmode none
attr source packetDropReasonIsIncorrectlyReceived(packetDropped)
attr title "packets dropped (checksum error), count"
scalar Scenario.normal_car[1].app[0] "packets sent" 41
scalar Scenario.normal_car[1].app[0] "packets received" 0
scalar Scenario.normal_car[1].app[0] packetReceived:count 0
attr interpolationmode none
attr source packetReceived
attr title "packets received, count"
scalar Scenario.normal_car[1].app[0] packetReceived:sum(packetBytes) 0
attr interpolationmode none
attr source packetReceived
attr title "packets received, sum(packetBytes)"
statistic Scenario.normal_car[1].app[0] rcvdPkLifetime:stats
field count 0
field mean -nan
field stddev nan
field min nan
field max nan
field sum 0
field sqrsum 0
attr interpolationmode none
attr source dataAge(packetReceived)
attr title "received packet lifetime, stats"
attr unit s
scalar Scenario.normal_car[1].app[0] packetSent:count 41
attr interpolationmode none
attr source packetSent
attr title "packets sent, count"
scalar Scenario.normal_car[1].app[0] packetSent:sum(packetBytes) 41984
attr interpolationmode none
attr source packetSent
attr title "packets sent, sum(packetBytes)"
scalar Scenario.normal_car[2].energyStorage residualEnergyCapacity:last -0.22628711266518
attr interpolationmode linear
attr source residualEnergyCapacityChanged
attr title "Residual energy capacity, last"
scalar Scenario.normal_car[2].lo[0].lo rcvdPkFromHl:count 0
attr interpolationmode none
attr source packetReceivedFromUpper
attr title "packets received from higher layer, count"
scalar Scenario.normal_car[2].lo[0].lo rcvdPkFromHl:sum(packetBytes) 0
attr interpolationmode none
attr source packetReceivedFromUpper
attr title "packets received from higher layer, sum(packetBytes)"
scalar Scenario.normal_car[2].lo[0].lo passedUpPk:count 0
attr interpolationmode none
attr source packetSentToUpper
attr title "packets passed to higher layer, count"
scalar Scenario.normal_car[2].lo[0].lo passedUpPk:sum(packetBytes) 0
attr interpolationmode none
attr source packetSentToUpper
attr title "packets passed to higher layer, sum(packetBytes)"
scalar Scenario.normal_car[2].wlan[0].mac.queue packetPopped:count 1
attr interpolationmode none
attr title "packet popped, count"
scalar Scenario.normal_car[2].wlan[0].mac.queue packetPopped:sum(packetBytes) 52
attr interpolationmode none
attr title "packet popped, sum(packetBytes)"
statistic Scenario.normal_car[2].wlan[0].mac.queue queueingTime:histogram
field count 1
field mean 0
field stddev -nan
field min 0
field max 0
field sum 0
field sqrsum 0
attr interpolationmode none
attr source queueingTime(packetPopped)
attr title "queueing times, histogram"
attr unit s
bin	-inf	0
bin	-0.5	0
bin	-0.48	0
bin	-0.46	0
bin	-0.44	0
bin	-0.42	0
bin	-0.4	0
bin	-0.38	0
bin	-0.36	0
bin	-0.34	0
bin	-0.32	0
bin	-0.3	0
bin	-0.28	0
bin	-0.26	0
bin	-0.24	0
bin	-0.22	0
bin	-0.2	0
bin	-0.18	0
bin	-0.16	0
bin	-0.14	0
bin	-0.12	0
bin	-0.1	0
bin	-0.08	0
bin	-0.06	0
bin	-0.04	0
bin	-0.02	0
bin	0	1
bin	0.02	0
bin	0.04	0
bin	0.06	0
bin	0.08	0
bin	0.1	0
bin	0.12	0
bin	0.14	0
bin	0.16	0
bin	0.18	0
bin	0.2	0
bin	0.22	0
bin	0.24	0
bin	0.26	0
bin	0.28	0
bin	0.3	0
bin	0.32	0
bin	0.34	0
bin	0.36	0
bin	0.38	0
bin	0.4	0
bin	0.42	0
bin	0.44	0
bin	0.46	0
bin	0.48	0
bin	0.5	0
scalar Scenario.normal_car[2].wlan[0].mac.queue queueLength:max 1
attr interpolationmode sample-hold
attr source "count(packetPushed) - count(packetPopped) - count(packetRemoved) - count(packetDropped)"
attr title "queue length, max"
scalar Scenario.normal_car[2].wlan[0].mac.queue queueLength:timeavg 0
attr interpolationmode sample-hold
attr source "count(packetPushed) - count(packetPopped) - count(packetRemoved) - count(packetDropped)"
attr title "queue length, timeavg"
scalar Scenario.normal_car[2].wlan[0].mac.queue packetPushed:count 1
attr interpolationmode none
attr title "packet pushed, count"
scalar Scenario.normal_car[2].wlan[0].mac.queue packetPushed:sum(packetBytes) 52
attr interpolationmode none
attr title "packet pushed, sum(packetBytes)"
scalar Scenario.normal_car[2].wlan[0].mac.queue packetDropQueueOverflow:count 0
attr interpolationmode none
attr source packetDropReasonIsQueueOverflow(packetDropped)
attr title "packet drops: queue overflow, count"
scalar Scenario.normal_car[2].wlan[0].mac.queue packetDropQueueOverflow:sum(packetBytes) 0
attr interpolationmode none
attr source packetDropReasonIsQueueOverflow(packetDropped)
attr title "packet drops: queue overflow, sum(packetBytes)"
scalar Scenario.normal_car[2].wlan[0].mac.queue packetRemoved:count 0
attr interpolationmode none
attr title "packets removed, count"
scalar Scenario.normal_car[2].wlan[0].mac.queue packetRemoved:sum(packetBytes) 0
attr interpolationmode none
attr title "packets removed, sum(packetBytes)"
scalar Scenario.normal_car[2].wlan[0].mac rcvdPkFromLl:count 45
attr interpolationmode none
attr source packetReceivedFromLower
attr title "packets received from lower layer, count"
scalar Scenario.normal_car[2].wlan[0].mac rcvdPkFromLl:sum(packetBytes) 44323
attr interpolationmode none
attr source packetReceivedFromLower
attr title "packets received from lower layer, sum(packetBytes)"
scalar Scenario.normal_car[2].wlan[0].mac sentDownPk:count 1
attr interpolationmode none
attr source packetSentToLower
attr title "packets sent to lower layer, count"
scalar Scenario.normal_car[2].wlan[0].mac sentDownPk:sum(packetBytes) 75
attr interpolationmode none
attr source packetSentToLower
attr title "packets sent to lower layer, sum(packetBytes)"
scalar Scenario.normal_car[2].wlan[0].mac rcvdPkFromHl:count 1
attr interpolationmode none
attr source packetReceivedFromUpper
attr title "packets received from higher layer, count"
scalar Scenario.normal_car[2].wlan[0].mac rcvdPkFromHl:sum(packetBytes) 52
attr interpolationmode none
attr source packetReceivedFromUpper
attr title "packets received from higher layer, sum(packetBytes)"
scalar Scenario.normal_car[2].wlan[0].mac passedUpPk:count 2
attr interpolationmode none
attr source packetSentToUpper
attr title "packets passed to higher layer, count"
scalar Scenario.normal_car[2].wlan[0].mac passedUpPk:sum(packetBytes) 80
attr interpolationmode none
attr source packetSentToUpper
attr title "packets passed to higher layer, sum(packetBytes)"
scalar Scenario.normal_car[2].wlan[0].mac packetDropIncorrectlyReceived:count 0
attr interpolationmode none
attr source packetDropReasonIsIncorrectlyReceived(packetDropped)
attr title "packet drop: incorrectly received, count"
scalar Scenario.normal_car[2].wlan[0].mac packetDropIncorrectlyReceived:sum(packetBytes) 0
attr interpolationmode none
attr source packetDropReasonIsIncorrectlyReceived(packetDropped)
attr title "packet drop: incorrectly received, sum(packetBytes)"
scalar Scenario.normal_car[2].wlan[0].mac packetDropInterfaceDown:count 0
attr interpolationmode none
attr source packetDropReasonIsInterfaceDown(packetDropped)
attr title "packet drop: interface down, count"
scalar Scenario.normal_car[2].wlan[0].mac packetDropInterfaceDown:sum(packetBytes) 0
attr interpolationmode none
attr source packetDropReasonIsInterfaceDown(packetDropped)
attr title "packet drop: interface down, sum(packetBytes)"
scalar Scenario.normal_car[2].wlan[0].mac packetDropNotAddressedToUs:count 43
attr interpolationmode none
attr source packetDropReasonIsNotAddressedToUs(packetDropped)
attr title "packet drop: not addressed to us, count"
scalar Scenario.normal_car[2].wlan[0].mac packetDropNotAddressedToUs:sum(packetBytes) 44197
attr interpolationmode none
attr source packetDropReasonIsNotAddressedToUs(packetDropped)
attr title "packet drop: not addressed to us, sum(packetBytes)"
scalar Scenario.normal_car[2].wlan[0].mac linkBroken:count 0
attr interpolationmode none
attr source linkBroken
attr title "link break, count"
scalar Scenario.normal_car[2].wlan[0].radio radioMode:count 3
attr interpolationmode sample-hold
attr source radioModeChanged
attr title "Radio mode, count"
scalar Scenario.normal_car[2].wlan[0].radio receptionState:count 91
attr interpolationmode sample-hold
attr source receptionStateChanged
attr title "Radio reception state, count"
scalar Scenario.normal_car[2].wlan[0].radio transmissionState:count 3
attr interpolationmode sample-hold
attr source transmissionStateChanged
attr title "Radio transmission state, count"
statistic Scenario.normal_car[2].wlan[0].radio minSnir:histogram
field count 0
field mean -nan
field stddev nan
field min nan
field max nan
field sum 0
field sqrsum 0
attr source minimumSnir(packetSentToUpper)
attr title "Min SNIR, histogram"
bin	-inf	0
bin	0	0
bin	1	0
statistic Scenario.normal_car[2].wlan[0].radio packetErrorRate:histogram
field count 45
field mean 0
field stddev 0
field min 0
field max 0
field sum 0
field sqrsum 0
attr source packetErrorRate(packetSentToUpper)
attr title "Packet error rate, histogram"
bin	-inf	0
bin	-0.5	0
bin	-0.48	0
bin	-0.46	0
bin	-0.44	0
bin	-0.42	0
bin	-0.4	0
bin	-0.38	0
bin	-0.36	0
bin	-0.34	0
bin	-0.32	0
bin	-0.3	0
bin	-0.28	0
bin	-0.26	0
bin	-0.24	0
bin	-0.22	0
bin	-0.2	0
bin	-0.18	0
bin	-0.16	0
bin	-0.14	0
bin	-0.12	0
bin	-0.1	0
bin	-0.08	0
bin	-0.06	0
bin	-0.04	0
bin	-0.02	0
bin	0	45
bin	0.02	0
bin	0.04	0
bin	0.06	0
bin	0.08	0
bin	0.1	0
bin	0.12	0
bin	0.14	0
bin	0.16	0
bin	0.18	0
bin	0.2	0
bin	0.22	0
bin	0.24	0
bin	0.26	0
bin	0.28	0
bin	0.3	0
bin	0.32	0
bin	0.34	0
bin	0.36	0
bin	0.38	0
bin	0.4	0
bin	0.42	0
bin	0.44	0
bin	0.46	0
bin	0.48	0
bin	0.5	0
statistic Scenario.normal_car[2].wlan[0].radio bitErrorRate:histogram
field count 45
field mean 0
field stddev 0
field min 0
field max 0
field sum 0
field sqrsum 0
attr source bitErrorRate(packetSentToUpper)
attr title "Bit error rate, histogram"
bin	-inf	0
bin	-0.5	0
bin	-0.48	0
bin	-0.46	0
bin	-0.44	0
bin	-0.42	0
bin	-0.4	0
bin	-0.38	0
bin	-0.36	0
bin	-0.34	0
bin	-0.32	0
bin	-0.3	0
bin	-0.28	0
bin	-0.26	0
bin	-0.24	0
bin	-0.22	0
bin	-0.2	0
bin	-0.18	0
bin	-0.16	0
bin	-0.14	0
bin	-0.12	0
bin	-0.1	0
bin	-0.08	0
bin	-0.06	0
bin	-0.04	0
bin	-0.02	0
bin	0	45
bin	0.02	0
bin	0.04	0
bin	0.06	0
bin	0.08	0
bin	0.1	0
bin	0.12	0
bin	0.14	0
bin	0.16	0
bin	0.18	0
bin	0.2	0
bin	0.22	0
bin	0.24	0
bin	0.26	0
bin	0.28	0
bin	0.3	0
bin	0.32	0
bin	0.34	0
bin	0.36	0
bin	0.38	0
bin	0.4	0
bin	0.42	0
bin	0.44	0
bin	0.46	0
bin	0.48	0
bin	0.5	0
statistic Scenario.normal_car[2].wlan[0].radio symbolErrorRate:histogram
field count 45
field mean 0
field stddev 0
field min 0
field max 0
field sum 0
field sqrsum 0
attr source symbolErrorRate(packetSentToUpper)
attr title "Symbol error rate, histogram"
bin	-inf	0
bin	-0.5	0
bin	-0.48	0
bin	-0.46	0
bin	-0.44	0
bin	-0.42	0
bin	-0.4	0
bin	-0.38	0
bin	-0.36	0
bin	-0.34	0
bin	-0.32	0
bin	-0.3	0
bin	-0.28	0
bin	-0.26	0
bin	-0.24	0
bin	-0.22	0
bin	-0.2	0
bin	-0.18	0
bin	-0.16	0
bin	-0.14	0
bin	-0.12	0
bin	-0.1	0
bin	-0.08	0
bin	-0.06	0
bin	-0.04	0
bin	-0.02	0
bin	0	45
bin	0.02	0
bin	0.04	0
bin	0.06	0
bin	0.08	0
bin	0.1	0
bin	0.12	0
bin	0.14	0
bin	0.16	0
bin	0.18	0
bin	0.2	0
bin	0.22	0
bin	0.24	0
bin	0.26	0
bin	0.28	0
bin	0.3	0
bin	0.32	0
bin	0.34	0
bin	0.36	0
bin	0.38	0
bin	0.4	0
bin	0.42	0
bin	0.44	0
bin	0.46	0
bin	0.48	0
bin	0.5	0
scalar Scenario.normal_car[2].ipv4.ip packetDropAddressResolutionFailed:count 0
attr interpolationmode none
attr source packetDropReasonIsAddressResolutionFailed(packetDropped)
attr title "packet drop: address resolution failed, count"
scalar Scenario.normal_car[2].ipv4.ip packetDropAddressResolutionFailed:sum(packetBytes) 0
attr interpolationmode none
attr source packetDropReasonIsAddressResolutionFailed(packetDropped)
attr title "packet drop: address resolution failed, sum(packetBytes)"
scalar Scenario.normal_car[2].ipv4.ip packetDropHopLimitReached:count 0
attr interpolationmode none
attr source packetDropReasonIsHopLimitReached(packetDropped)
attr title "packet drop: hop limit reached, count"
scalar Scenario.normal_car[2].ipv4.ip packetDropHopLimitReached:sum(packetBytes) 0
attr interpolationmode none
attr source packetDropReasonIsHopLimitReached(packetDropped)
attr title "packet drop: hop limit reached, sum(packetBytes)"
scalar Scenario.normal_car[2].ipv4.ip packetDropForwardingDisabled:count 0
attr interpolationmode none
attr source packetDropReasonIsForwardingDisabled(packetDropped)
attr title "packet drop: forwarding disabled, count"
scalar Scenario.normal_car[2].ipv4.ip packetDropForwardingDisabled:sum(packetBytes) 0
attr interpolationmode none
attr source packetDropReasonIsForwardingDisabled(packetDropped)
attr title "packet drop: forwarding disabled, sum(packetBytes)"
scalar Scenario.normal_car[2].ipv4.ip packetDropNoInterfaceFound:count 0
attr interpolationmode none
attr source packetDropReasonIsNoInterfaceFound(packetDropped)
attr title "packet drop: no interface found, count"
scalar Scenario.normal_car[2].ipv4.ip packetDropNoInterfaceFound:sum(packetBytes) 0
attr interpolationmode none
attr source packetDropReasonIsNoInterfaceFound(packetDropped)
attr title "packet drop: no interface found, sum(packetBytes)"
scalar Scenario.normal_car[2].ipv4.ip packetDropNoRouteFound:count 0
attr interpolationmode none
attr source packetDropReasonIsNoRouteFound(packetDropped)
attr title "packet drop: no route found, count"
scalar Scenario.normal_car[2].ipv4.ip packetDropNoRouteFound:sum(packetBytes) 0
attr interpolationmode none
attr source packetDropReasonIsNoRouteFound(packetDropped)
attr title "packet drop: no route found, sum(packetBytes)"
scalar Scenario.normal_car[2].ipv4.ip packetDropUndefined:count 0
attr interpolationmode none
attr source packetDropReasonIsUndefined(packetDropped)
attr title "packet drop: undefined, count"
scalar Scenario.normal_car[2].ipv4.ip packetDropUndefined:sum(packetBytes) 0
attr interpolationmode none
attr source packetDropReasonIsUndefined(packetDropped)
attr title "packet drop: undefined, sum(packetBytes)"
scalar Scenario.normal_car[2].ipv4.arp arpResolutionFailed:count 0
attr title "ARP failed resolutions, count"
scalar Scenario.normal_car[2].ipv4.arp arpResolutionCompleted:count 0
attr title "ARP completed resolutions, count"
scalar Scenario.normal_car[2].ipv4.arp arpResolutionInitiated:count 0
attr title "ARP initiated resolutions, count"
scalar Scenario.normal_car[2].ipv4.arp arpReplySent:count 0
attr source arpReplySent
attr title "ARP replies sent, count"
scalar Scenario.normal_car[2].ipv4.arp arpReplySent:sum(packetBytes) 0
attr source arpReplySent
attr title "ARP replies sent, sum(packetBytes)"
scalar Scenario.normal_car[2].ipv4.arp arpRequestSent:count 0
attr source arpRequestSent
attr title "ARP request sent, count"
scalar Scenario.normal_car[2].ipv4.arp arpRequestSent:sum(packetBytes) 0
attr source arpRequestSent
attr title "ARP request sent, sum(packetBytes)"
scalar Scenario.normal_car[2].udp packetReceived:count 1
attr interpolationmode none
attr source packetReceived
attr title "packets received, count"
scalar Scenario.normal_car[2].udp packetReceived:sum(packetBytes) 32
attr interpolationmode none
attr source packetReceived
attr title "packets received, sum(packetBytes)"
scalar Scenario.normal_car[2].udp packetSent:count 1
attr interpolationmode none
attr source packetSent
attr title "packets sent, count"
scalar Scenario.normal_car[2].udp packetSent:sum(packetBytes) 32
attr interpolationmode none
attr source packetSent
attr title "packets sent, sum(packetBytes)"
scalar Scenario.normal_car[2].udp passedUpPk:count 1
attr interpolationmode none
attr source packetSentToUpper
attr title "packets passed up, count"
scalar Scenario.normal_car[2].udp droppedPkWrongPort:count 0
attr interpolationmode none
attr source packetDropReasonIsNoPortFound(packetDropped)
attr title "packets dropped (wrong port), count"
scalar Scenario.normal_car[2].udp droppedPkBadChecksum:count 0
attr interpolationmode none
attr source packetDropReasonIsIncorrectlyReceived(packetDropped)
attr title "packets dropped (checksum error), count"
scalar Scenario.normal_car[2].app[0] packetReceived:count 0
attr interpolationmode none
attr source packetReceived
attr title "packets received, count"
scalar Scenario.normal_car[2].app[0] packetReceived:sum(packetBytes) 0
attr interpolationmode none
attr source packetReceived
attr title "packets received, sum(packetBytes)"
statistic Scenario.normal_car[2].app[0] endToEndDelay:histogram
field count 0
field mean -nan
field stddev nan
field min nan
field max nan
field sum 0
field sqrsum 0
attr interpolationmode none
attr source dataAge(packetReceived)
attr title "end-to-end delay, histogram"
attr unit s
bin	-inf	0
bin	0	0
bin	1	0
scalar Scenario.normal_car[3].energyStorage residualEnergyCapacity:last -0.13267827360955
attr interpolationmode linear
attr source residualEnergyCapacityChanged
attr title "Residual energy capacity, last"
scalar Scenario.normal_car[3].lo[0].lo rcvdPkFromHl:count 0
attr interpolationmode none
attr source packetReceivedFromUpper
attr title "packets received from higher layer, count"
scalar Scenario.normal_car[3].lo[0].lo rcvdPkFromHl:sum(packetBytes) 0
attr interpolationmode none
attr source packetReceivedFromUpper
attr title "packets received from higher layer, sum(packetBytes)"
scalar Scenario.normal_car[3].lo[0].lo passedUpPk:count 0
attr interpolationmode none
attr source packetSentToUpper
attr title "packets passed to higher layer, count"
scalar Scenario.normal_car[3].lo[0].lo passedUpPk:sum(packetBytes) 0
attr interpolationmode none
attr source packetSentToUpper
attr title "packets passed to higher layer, sum(packetBytes)"
scalar Scenario.normal_car[3].wlan[0].mac.queue packetPopped:count 0
attr interpolationmode none
attr title "packet popped, count"
scalar Scenario.normal_car[3].wlan[0].mac.queue packetPopped:sum(packetBytes) 0
attr interpolationmode none
attr title "packet popped, sum(packetBytes)"
statistic Scenario.normal_car[3].wlan[0].mac.queue queueingTime:histogram
field count 0
field mean -nan
field stddev nan
field min nan
field max nan
field sum 0
field sqrsum 0
attr interpolationmode none
attr source queueingTime(packetPopped)
attr title "queueing times, histogram"
attr unit s
bin	-inf	0
bin	0	0
bin	1	0
scalar Scenario.normal_car[3].wlan[0].mac.queue queueLength:max nan
attr interpolationmode sample-hold
attr source "count(packetPushed) - count(packetPopped) - count(packetRemoved) - count(packetDropped)"
attr title "queue length, max"
scalar Scenario.normal_car[3].wlan[0].mac.queue queueLength:timeavg -nan
attr interpolationmode sample-hold
attr source "count(packetPushed) - count(packetPopped) - count(packetRemoved) - count(packetDropped)"
attr title "queue length, timeavg"
scalar Scenario.normal_car[3].wlan[0].mac.queue packetPushed:count 0
attr interpolationmode none
attr title "packet pushed, count"
scalar Scenario.normal_car[3].wlan[0].mac.queue packetPushed:sum(packetBytes) 0
attr interpolationmode none
attr title "packet pushed, sum(packetBytes)"
scalar Scenario.normal_car[3].wlan[0].mac.queue packetDropQueueOverflow:count 0
attr interpolationmode none
attr source packetDropReasonIsQueueOverflow(packetDropped)
attr title "packet drops: queue overflow, count"
scalar Scenario.normal_car[3].wlan[0].mac.queue packetDropQueueOverflow:sum(packetBytes) 0
attr interpolationmode none
attr source packetDropReasonIsQueueOverflow(packetDropped)
attr title "packet drops: queue overflow, sum(packetBytes)"
scalar Scenario.normal_car[3].wlan[0].mac.queue packetRemoved:count 0
attr interpolationmode none
attr title "packets removed, count"
scalar Scenario.normal_car[3].wlan[0].mac.queue packetRemoved:sum(packetBytes) 0
attr interpolationmode none
attr title "packets removed, sum(packetBytes)"
scalar Scenario.normal_car[3].wlan[0].mac rcvdPkFromLl:count 8
attr interpolationmode none
attr source packetReceivedFromLower
attr title "packets received from lower layer, count"
scalar Scenario.normal_car[3].wlan[0].mac rcvdPkFromLl:sum(packetBytes) 8600
attr interpolationmode none
attr source packetReceivedFromLower
attr title "packets received from lower layer, sum(packetBytes)"
scalar Scenario.normal_car[3].wlan[0].mac sentDownPk:count 0
attr interpolationmode none
attr source packetSentToLower
attr title "packets sent to lower layer, count"
scalar Scenario.normal_car[3].wlan[0].mac sentDownPk:sum(packetBytes) 0
attr interpolationmode none
attr source packetSentToLower
attr title "packets sent to lower layer, sum(packetBytes)"
scalar Scenario.normal_car[3].wlan[0].mac rcvdPkFromHl:count 0
attr interpolationmode none
attr source packetReceivedFromUpper
attr title "packets received from higher layer, count"
scalar Scenario.normal_car[3].wlan[0].mac rcvdPkFromHl:sum(packetBytes) 0
attr interpolationmode none
attr source packetReceivedFromUpper
attr title "packets received from higher layer, sum(packetBytes)"
scalar Scenario.normal_car[3].wlan[0].mac passedUpPk:count 0
attr interpolationmode none
attr source packetSentToUpper
attr title "packets passed to higher layer, count"
scalar Scenario.normal_car[3].wlan[0].mac passedUpPk:sum(packetBytes) 0
attr interpolationmode none
attr source packetSentToUpper
attr title "packets passed to higher layer, sum(packetBytes)"
scalar Scenario.normal_car[3].wlan[0].mac packetDropIncorrectlyReceived:count 0
attr interpolationmode none
attr source packetDropReasonIsIncorrectlyReceived(packetDropped)
attr title "packet drop: incorrectly received, count"
scalar Scenario.normal_car[3].wlan[0].mac packetDropIncorrectlyReceived:sum(packetBytes) 0
attr interpolationmode none
attr source packetDropReasonIsIncorrectlyReceived(packetDropped)
attr title "packet drop: incorrectly received, sum(packetBytes)"
scalar Scenario.normal_car[3].wlan[0].mac packetDropInterfaceDown:count 0
attr interpolationmode none
attr source packetDropReasonIsInterfaceDown(packetDropped)
attr title "packet drop: interface down, count"
scalar Scenario.normal_car[3].wlan[0].mac packetDropInterfaceDown:sum(packetBytes) 0
attr interpolationmode none
attr source packetDropReasonIsInterfaceDown(packetDropped)
attr title "packet drop: interface down, sum(packetBytes)"
scalar Scenario.normal_car[3].wlan[0].mac packetDropNotAddressedToUs:count 8
attr interpolationmode none
attr source packetDropReasonIsNotAddressedToUs(packetDropped)
attr title "packet drop: not addressed to us, count"
scalar Scenario.normal_car[3].wlan[0].mac packetDropNotAddressedToUs:sum(packetBytes) 8600
attr interpolationmode none
attr source packetDropReasonIsNotAddressedToUs(packetDropped)
attr title "packet drop: not addressed to us, sum(packetBytes)"
scalar Scenario.normal_car[3].wlan[0].mac linkBroken:count 0
attr interpolationmode none
attr source linkBroken
attr title "link break, count"
scalar Scenario.normal_car[3].wlan[0].radio radioMode:count 3
attr interpolationmode sample-hold
attr source radioModeChanged
attr title "Radio mode, count"
scalar Scenario.normal_car[3].wlan[0].radio receptionState:count 17
attr interpolationmode sample-hold
attr source receptionStateChanged
attr title "Radio reception state, count"
scalar Scenario.normal_car[3].wlan[0].radio transmissionState:count 1
attr interpolationmode sample-hold
attr source transmissionStateChanged
attr title "Radio transmission state, count"
statistic Scenario.normal_car[3].wlan[0].radio minSnir:histogram
field count 0
field mean -nan
field stddev nan
field min nan
field max nan
field sum 0
field sqrsum 0
attr source minimumSnir(packetSentToUpper)
attr title "Min SNIR, histogram"
bin	-inf	0
bin	0	0
bin	1	0
statistic Scenario.normal_car[3].wlan[0].radio packetErrorRate:histogram
field count 8
field mean 0
field stddev 0
field min 0
field max 0
field sum 0
field sqrsum 0
attr source packetErrorRate(packetSentToUpper)
attr title "Packet error rate, histogram"
bin	-inf	0
bin	-0.5	0
bin	-0.48	0
bin	-0.46	0
bin	-0.44	0
bin	-0.42	0
bin	-0.4	0
bin	-0.38	0
bin	-0.36	0
bin	-0.34	0
bin	-0.32	0
bin	-0.3	0
bin	-0.28	0
bin	-0.26	0
bin	-0.24	0
bin	-0.22	0
bin	-0.2	0
bin	-0.18	0
bin	-0.16	0
bin	-0.14	0
bin	-0.12	0
bin	-0.1	0
bin	-0.08	0
bin	-0.06	0
bin	-0.04	0
bin	-0.02	0
bin	0	8
bin	0.02	0
bin	0.04	0
bin	0.06	0
bin	0.08	0
bin	0.1	0
bin	0.12	0
bin	0.14	0
bin	0.16	0
bin	0.18	0
bin	0.2	0
bin	0.22	0
bin	0.24	0
bin	0.26	0
bin	0.28	0
bin	0.3	0
bin	0.32	0
bin	0.34	0
bin	0.36	0
bin	0.38	0
bin	0.4	0
bin	0.42	0
bin	0.44	0
bin	0.46	0
bin	0.48	0
bin	0.5	0
statistic Scenario.normal_car[3].wlan[0].radio bitErrorRate:histogram
field count 8
field mean 0
field stddev 0
field min 0
field max 0
field sum 0
field sqrsum 0
attr source bitErrorRate(packetSentToUpper)
attr title "Bit error rate, histogram"
bin	-inf	0
bin	-0.5	0
bin	-0.48	0
bin	-0.46	0
bin	-0.44	0
bin	-0.42	0
bin	-0.4	0
bin	-0.38	0
bin	-0.36	0
bin	-0.34	0
bin	-0.32	0
bin	-0.3	0
bin	-0.28	0
bin	-0.26	0
bin	-0.24	0
bin	-0.22	0
bin	-0.2	0
bin	-0.18	0
bin	-0.16	0
bin	-0.14	0
bin	-0.12	0
bin	-0.1	0
bin	-0.08	0
bin	-0.06	0
bin	-0.04	0
bin	-0.02	0
bin	0	8
bin	0.02	0
bin	0.04	0
bin	0.06	0
bin	0.08	0
bin	0.1	0
bin	0.12	0
bin	0.14	0
bin	0.16	0
bin	0.18	0
bin	0.2	0
bin	0.22	0
bin	0.24	0
bin	0.26	0
bin	0.28	0
bin	0.3	0
bin	0.32	0
bin	0.34	0
bin	0.36	0
bin	0.38	0
bin	0.4	0
bin	0.42	0
bin	0.44	0
bin	0.46	0
bin	0.48	0
bin	0.5	0
statistic Scenario.normal_car[3].wlan[0].radio symbolErrorRate:histogram
field count 8
field mean 0
field stddev 0
field min 0
field max 0
field sum 0
field sqrsum 0
attr source symbolErrorRate(packetSentToUpper)
attr title "Symbol error rate, histogram"
bin	-inf	0
bin	-0.5	0
bin	-0.48	0
bin	-0.46	0
bin	-0.44	0
bin	-0.42	0
bin	-0.4	0
bin	-0.38	0
bin	-0.36	0
bin	-0.34	0
bin	-0.32	0
bin	-0.3	0
bin	-0.28	0
bin	-0.26	0
bin	-0.24	0
bin	-0.22	0
bin	-0.2	0
bin	-0.18	0
bin	-0.16	0
bin	-0.14	0
bin	-0.12	0
bin	-0.1	0
bin	-0.08	0
bin	-0.06	0
bin	-0.04	0
bin	-0.02	0
bin	0	8
bin	0.02	0
bin	0.04	0
bin	0.06	0
bin	0.08	0
bin	0.1	0
bin	0.12	0
bin	0.14	0
bin	0.16	0
bin	0.18	0
bin	0.2	0
bin	0.22	0
bin	0.24	0
bin	0.26	0
bin	0.28	0
bin	0.3	0
bin	0.32	0
bin	0.34	0
bin	0.36	0
bin	0.38	0
bin	0.4	0
bin	0.42	0
bin	0.44	0
bin	0.46	0
bin	0.48	0
bin	0.5	0
scalar Scenario.normal_car[3].ipv4.ip packetDropAddressResolutionFailed:count 0
attr interpolationmode none
attr source packetDropReasonIsAddressResolutionFailed(packetDropped)
attr title "packet drop: address resolution failed, count"
scalar Scenario.normal_car[3].ipv4.ip packetDropAddressResolutionFailed:sum(packetBytes) 0
attr interpolationmode none
attr source packetDropReasonIsAddressResolutionFailed(packetDropped)
attr title "packet drop: address resolution failed, sum(packetBytes)"
scalar Scenario.normal_car[3].ipv4.ip packetDropHopLimitReached:count 0
attr interpolationmode none
attr source packetDropReasonIsHopLimitReached(packetDropped)
attr title "packet drop: hop limit reached, count"
scalar Scenario.normal_car[3].ipv4.ip packetDropHopLimitReached:sum(packetBytes) 0
attr interpolationmode none
attr source packetDropReasonIsHopLimitReached(packetDropped)
attr title "packet drop: hop limit reached, sum(packetBytes)"
scalar Scenario.normal_car[3].ipv4.ip packetDropForwardingDisabled:count 0
attr interpolationmode none
attr source packetDropReasonIsForwardingDisabled(packetDropped)
attr title "packet drop: forwarding disabled, count"
scalar Scenario.normal_car[3].ipv4.ip packetDropForwardingDisabled:sum(packetBytes) 0
attr interpolationmode none
attr source packetDropReasonIsForwardingDisabled(packetDropped)
attr title "packet drop: forwarding disabled, sum(packetBytes)"
scalar Scenario.normal_car[3].ipv4.ip packetDropNoInterfaceFound:count 0
attr interpolationmode none
attr source packetDropReasonIsNoInterfaceFound(packetDropped)
attr title "packet drop: no interface found, count"
scalar Scenario.normal_car[3].ipv4.ip packetDropNoInterfaceFound:sum(packetBytes) 0
attr interpolationmode none
attr source packetDropReasonIsNoInterfaceFound(packetDropped)
attr title "packet drop: no interface found, sum(packetBytes)"
scalar Scenario.normal_car[3].ipv4.ip packetDropNoRouteFound:count 0
attr interpolationmode none
attr source packetDropReasonIsNoRouteFound(packetDropped)
attr title "packet drop: no route found, count"
scalar Scenario.normal_car[3].ipv4.ip packetDropNoRouteFound:sum(packetBytes) 0
attr interpolationmode none
attr source packetDropReasonIsNoRouteFound(packetDropped)
attr title "packet drop: no route found, sum(packetBytes)"
scalar Scenario.normal_car[3].ipv4.ip packetDropUndefined:count 0
attr interpolationmode none
attr source packetDropReasonIsUndefined(packetDropped)
attr title "packet drop: undefined, count"
scalar Scenario.normal_car[3].ipv4.ip packetDropUndefined:sum(packetBytes) 0
attr interpolationmode none
attr source packetDropReasonIsUndefined(packetDropped)
attr title "packet drop: undefined, sum(packetBytes)"
scalar Scenario.normal_car[3].ipv4.arp arpResolutionFailed:count 0
attr title "ARP failed resolutions, count"
scalar Scenario.normal_car[3].ipv4.arp arpResolutionCompleted:count 0
attr title "ARP completed resolutions, count"
scalar Scenario.normal_car[3].ipv4.arp arpResolutionInitiated:count 0
attr title "ARP initiated resolutions, count"
scalar Scenario.normal_car[3].ipv4.arp arpReplySent:count 0
attr source arpReplySent
attr title "ARP replies sent, count"
scalar Scenario.normal_car[3].ipv4.arp arpReplySent:sum(packetBytes) 0
attr source arpReplySent
attr title "ARP replies sent, sum(packetBytes)"
scalar Scenario.normal_car[3].ipv4.arp arpRequestSent:count 0
attr source arpRequestSent
attr title "ARP request sent, count"
scalar Scenario.normal_car[3].ipv4.arp arpRequestSent:sum(packetBytes) 0
attr source arpRequestSent
attr title "ARP request sent, sum(packetBytes)"
scalar Scenario.normal_car[3].udp packetReceived:count 0
attr interpolationmode none
attr source packetReceived
attr title "packets received, count"
scalar Scenario.normal_car[3].udp packetReceived:sum(packetBytes) 0
attr interpolationmode none
attr source packetReceived
attr title "packets received, sum(packetBytes)"
scalar Scenario.normal_car[3].udp packetSent:count 0
attr interpolationmode none
attr source packetSent
attr title "packets sent, count"
scalar Scenario.normal_car[3].udp packetSent:sum(packetBytes) 0
attr interpolationmode none
attr source packetSent
attr title "packets sent, sum(packetBytes)"
scalar Scenario.normal_car[3].udp passedUpPk:count 0
attr interpolationmode none
attr source packetSentToUpper
attr title "packets passed up, count"
scalar Scenario.normal_car[3].udp droppedPkWrongPort:count 0
attr interpolationmode none
attr source packetDropReasonIsNoPortFound(packetDropped)
attr title "packets dropped (wrong port), count"
scalar Scenario.normal_car[3].udp droppedPkBadChecksum:count 0
attr interpolationmode none
attr source packetDropReasonIsIncorrectlyReceived(packetDropped)
attr title "packets dropped (checksum error), count"
scalar Scenario.normal_car[3].app[0] packetReceived:count 0
attr interpolationmode none
attr source packetReceived
attr title "packets received, count"
scalar Scenario.normal_car[3].app[0] packetReceived:sum(packetBytes) 0
attr interpolationmode none
attr source packetReceived
attr title "packets received, sum(packetBytes)"
statistic Scenario.normal_car[3].app[0] endToEndDelay:histogram
field count 0
field mean -nan
field stddev nan
field min nan
field max nan
field sum 0
field sqrsum 0
attr interpolationmode none
attr source dataAge(packetReceived)
attr title "end-to-end delay, histogram"
attr unit s
bin	-inf	0
bin	0	0
bin	1	0
scalar Scenario.normal_car[4].energyStorage residualEnergyCapacity:last -0.21150556940691
attr interpolationmode linear
attr source residualEnergyCapacityChanged
attr title "Residual energy capacity, last"
scalar Scenario.normal_car[4].lo[0].lo rcvdPkFromHl:count 0
attr interpolationmode none
attr source packetReceivedFromUpper
attr title "packets received from higher layer, count"
scalar Scenario.normal_car[4].lo[0].lo rcvdPkFromHl:sum(packetBytes) 0
attr interpolationmode none
attr source packetReceivedFromUpper
attr title "packets received from higher layer, sum(packetBytes)"
scalar Scenario.normal_car[4].lo[0].lo passedUpPk:count 0
attr interpolationmode none
attr source packetSentToUpper
attr title "packets passed to higher layer, count"
scalar Scenario.normal_car[4].lo[0].lo passedUpPk:sum(packetBytes) 0
attr interpolationmode none
attr source packetSentToUpper
attr title "packets passed to higher layer, sum(packetBytes)"
scalar Scenario.normal_car[4].wlan[0].mac.queue packetPopped:count 2
attr interpolationmode none
attr title "packet popped, count"
scalar Scenario.normal_car[4].wlan[0].mac.queue packetPopped:sum(packetBytes) 76
attr interpolationmode none
attr title "packet popped, sum(packetBytes)"
statistic Scenario.normal_car[4].wlan[0].mac.queue queueingTime:histogram
field count 2
field mean 0
field stddev 0
field min 0
field max 0
field sum 0
field sqrsum 0
attr interpolationmode none
attr source queueingTime(packetPopped)
attr title "queueing times, histogram"
attr unit s
bin	-inf	0
bin	-0.5	0
bin	-0.48	0
bin	-0.46	0
bin	-0.44	0
bin	-0.42	0
bin	-0.4	0
bin	-0.38	0
bin	-0.36	0
bin	-0.34	0
bin	-0.32	0
bin	-0.3	0
bin	-0.28	0
bin	-0.26	0
bin	-0.24	0
bin	-0.22	0
bin	-0.2	0
bin	-0.18	0
bin	-0.16	0
bin	-0.14	0
bin	-0.12	0
bin	-0.1	0
bin	-0.08	0
bin	-0.06	0
bin	-0.04	0
bin	-0.02	0
bin	0	2
bin	0.02	0
bin	0.04	0
bin	0.06	0
bin	0.08	0
bin	0.1	0
bin	0.12	0
bin	0.14	0
bin	0.16	0
bin	0.18	0
bin	0.2	0
bin	0.22	0
bin	0.24	0
bin	0.26	0
bin	0.28	0
bin	0.3	0
bin	0.32	0
bin	0.34	0
bin	0.36	0
bin	0.38	0
bin	0.4	0
bin	0.42	0
bin	0.44	0
bin	0.46	0
bin	0.48	0
bin	0.5	0
scalar Scenario.normal_car[4].wlan[0].mac.queue queueLength:max 1
attr interpolationmode sample-hold
attr source "count(packetPushed) - count(packetPopped) - count(packetRemoved) - count(packetDropped)"
attr title "queue length, max"
scalar Scenario.normal_car[4].wlan[0].mac.queue queueLength:timeavg 0
attr interpolationmode sample-hold
attr source "count(packetPushed) - count(packetPopped) - count(packetRemoved) - count(packetDropped)"
attr title "queue length, timeavg"
scalar Scenario.normal_car[4].wlan[0].mac.queue packetPushed:count 2
attr interpolationmode none
attr title "packet pushed, count"
scalar Scenario.normal_car[4].wlan[0].mac.queue packetPushed:sum(packetBytes) 76
attr interpolationmode none
attr title "packet pushed, sum(packetBytes)"
scalar Scenario.normal_car[4].wlan[0].mac.queue packetDropQueueOverflow:count 0
attr interpolationmode none
attr source packetDropReasonIsQueueOverflow(packetDropped)
attr title "packet drops: queue overflow, count"
scalar Scenario.normal_car[4].wlan[0].mac.queue packetDropQueueOverflow:sum(packetBytes) 0
attr interpolationmode none
attr source packetDropReasonIsQueueOverflow(packetDropped)
attr title "packet drops: queue overflow, sum(packetBytes)"
scalar Scenario.normal_car[4].wlan[0].mac.queue packetRemoved:count 0
attr interpolationmode none
attr title "packets removed, count"
scalar Scenario.normal_car[4].wlan[0].mac.queue packetRemoved:sum(packetBytes) 0
attr interpolationmode none
attr title "packets removed, sum(packetBytes)"
scalar Scenario.normal_car[4].wlan[0].mac rcvdPkFromLl:count 43
attr interpolationmode none
attr source packetReceivedFromLower
attr title "packets received from lower layer, count"
scalar Scenario.normal_car[4].wlan[0].mac rcvdPkFromLl:sum(packetBytes) 44201
attr interpolationmode none
attr source packetReceivedFromLower
attr title "packets received from lower layer, sum(packetBytes)"
scalar Scenario.normal_car[4].wlan[0].mac sentDownPk:count 2
attr interpolationmode none
attr source packetSentToLower
attr title "packets sent to lower layer, count"
scalar Scenario.normal_car[4].wlan[0].mac sentDownPk:sum(packetBytes) 122
attr interpolationmode none
attr source packetSentToLower
attr title "packets sent to lower layer, sum(packetBytes)"
scalar Scenario.normal_car[4].wlan[0].mac rcvdPkFromHl:count 2
attr interpolationmode none
attr source packetReceivedFromUpper
attr title "packets received from higher layer, count"
scalar Scenario.normal_car[4].wlan[0].mac rcvdPkFromHl:sum(packetBytes) 76
attr interpolationmode none
attr source packetReceivedFromUpper
attr title "packets received from higher layer, sum(packetBytes)"
scalar Scenario.normal_car[4].wlan[0].mac passedUpPk:count 43
attr interpolationmode none
attr source packetSentToUpper
attr title "packets passed to higher layer, count"
scalar Scenario.normal_car[4].wlan[0].mac passedUpPk:sum(packetBytes) 43212
attr interpolationmode none
attr source packetSentToUpper
attr title "packets passed to higher layer, sum(packetBytes)"
scalar Scenario.normal_car[4].wlan[0].mac packetDropIncorrectlyReceived:count 0
attr interpolationmode none
attr source packetDropReasonIsIncorrectlyReceived(packetDropped)
attr title "packet drop: incorrectly received, count"
scalar Scenario.normal_car[4].wlan[0].mac packetDropIncorrectlyReceived:sum(packetBytes) 0
attr interpolationmode none
attr source packetDropReasonIsIncorrectlyReceived(packetDropped)
attr title "packet drop: incorrectly received, sum(packetBytes)"
scalar Scenario.normal_car[4].wlan[0].mac packetDropInterfaceDown:count 0
attr interpolationmode none
attr source packetDropReasonIsInterfaceDown(packetDropped)
attr title "packet drop: interface down, count"
scalar Scenario.normal_car[4].wlan[0].mac packetDropInterfaceDown:sum(packetBytes) 0
attr interpolationmode none
attr source packetDropReasonIsInterfaceDown(packetDropped)
attr title "packet drop: interface down, sum(packetBytes)"
scalar Scenario.normal_car[4].wlan[0].mac packetDropNotAddressedToUs:count 0
attr interpolationmode none
attr source packetDropReasonIsNotAddressedToUs(packetDropped)
attr title "packet drop: not addressed to us, count"
scalar Scenario.normal_car[4].wlan[0].mac packetDropNotAddressedToUs:sum(packetBytes) 0
attr interpolationmode none
attr source packetDropReasonIsNotAddressedToUs(packetDropped)
attr title "packet drop: not addressed to us, sum(packetBytes)"
scalar Scenario.normal_car[4].wlan[0].mac linkBroken:count 0
attr interpolationmode none
attr source linkBroken
attr title "link break, count"
scalar Scenario.normal_car[4].wlan[0].radio radioMode:count 3
attr interpolationmode sample-hold
attr source radioModeChanged
attr title "Radio mode, count"
scalar Scenario.normal_car[4].wlan[0].radio receptionState:count 87
attr interpolationmode sample-hold
attr source receptionStateChanged
attr title "Radio reception state, count"
scalar Scenario.normal_car[4].wlan[0].radio transmissionState:count 5
attr interpolationmode sample-hold
attr source transmissionStateChanged
attr title "Radio transmission state, count"
statistic Scenario.normal_car[4].wlan[0].radio minSnir:histogram
field count 0
field mean -nan
field stddev nan
field min nan
field max nan
field sum 0
field sqrsum 0
attr source minimumSnir(packetSentToUpper)
attr title "Min SNIR, histogram"
bin	-inf	0
bin	0	0
bin	1	0
statistic Scenario.normal_car[4].wlan[0].radio packetErrorRate:histogram
field count 43
field mean 0.023255813953488
field stddev 0.1524985703326
field min 0
field max 1
field sum 1
field sqrsum 1
attr source packetErrorRate(packetSentToUpper)
attr title "Packet error rate, histogram"
bin	-inf	0
bin	0	42
bin	1	1
bin	2	0
statistic Scenario.normal_car[4].wlan[0].radio bitErrorRate:histogram
field count 43
field mean 0.023255813953488
field stddev 0.1524985703326
field min 0
field max 1
field sum 1
field sqrsum 1
attr source bitErrorRate(packetSentToUpper)
attr title "Bit error rate, histogram"
bin	-inf	0
bin	0	42
bin	1	1
bin	2	0
statistic Scenario.normal_car[4].wlan[0].radio symbolErrorRate:histogram
field count 43
field mean 0.023255813953488
field stddev 0.1524985703326
field min 0
field max 1
field sum 1
field sqrsum 1
attr source symbolErrorRate(packetSentToUpper)
attr title "Symbol error rate, histogram"
bin	-inf	0
bin	0	42
bin	1	1
bin	2	0
scalar Scenario.normal_car[4].ipv4.ip packetDropAddressResolutionFailed:count 0
attr interpolationmode none
attr source packetDropReasonIsAddressResolutionFailed(packetDropped)
attr title "packet drop: address resolution failed, count"
scalar Scenario.normal_car[4].ipv4.ip packetDropAddressResolutionFailed:sum(packetBytes) 0
attr interpolationmode none
attr source packetDropReasonIsAddressResolutionFailed(packetDropped)
attr title "packet drop: address resolution failed, sum(packetBytes)"
scalar Scenario.normal_car[4].ipv4.ip packetDropHopLimitReached:count 0
attr interpolationmode none
attr source packetDropReasonIsHopLimitReached(packetDropped)
attr title "packet drop: hop limit reached, count"
scalar Scenario.normal_car[4].ipv4.ip packetDropHopLimitReached:sum(packetBytes) 0
attr interpolationmode none
attr source packetDropReasonIsHopLimitReached(packetDropped)
attr title "packet drop: hop limit reached, sum(packetBytes)"
scalar Scenario.normal_car[4].ipv4.ip packetDropForwardingDisabled:count 0
attr interpolationmode none
attr source packetDropReasonIsForwardingDisabled(packetDropped)
attr title "packet drop: forwarding disabled, count"
scalar Scenario.normal_car[4].ipv4.ip packetDropForwardingDisabled:sum(packetBytes) 0
attr interpolationmode none
attr source packetDropReasonIsForwardingDisabled(packetDropped)
attr title "packet drop: forwarding disabled, sum(packetBytes)"
scalar Scenario.normal_car[4].ipv4.ip packetDropNoInterfaceFound:count 0
attr interpolationmode none
attr source packetDropReasonIsNoInterfaceFound(packetDropped)
attr title "packet drop: no interface found, count"
scalar Scenario.normal_car[4].ipv4.ip packetDropNoInterfaceFound:sum(packetBytes) 0
attr interpolationmode none
attr source packetDropReasonIsNoInterfaceFound(packetDropped)
attr title "packet drop: no interface found, sum(packetBytes)"
scalar Scenario.normal_car[4].ipv4.ip packetDropNoRouteFound:count 0
attr interpolationmode none
attr source packetDropReasonIsNoRouteFound(packetDropped)
attr title "packet drop: no route found, count"
scalar Scenario.normal_car[4].ipv4.ip packetDropNoRouteFound:sum(packetBytes) 0
attr interpolationmode none
attr source packetDropReasonIsNoRouteFound(packetDropped)
attr title "packet drop: no route found, sum(packetBytes)"
scalar Scenario.normal_car[4].ipv4.ip packetDropUndefined:count 0
attr interpolationmode none
attr source packetDropReasonIsUndefined(packetDropped)
attr title "packet drop: undefined, count"
scalar Scenario.normal_car[4].ipv4.ip packetDropUndefined:sum(packetBytes) 0
attr interpolationmode none
attr source packetDropReasonIsUndefined(packetDropped)
attr title "packet drop: undefined, sum(packetBytes)"
scalar Scenario.normal_car[4].ipv4.arp arpResolutionFailed:count 0
attr title "ARP failed resolutions, count"
scalar Scenario.normal_car[4].ipv4.arp arpResolutionCompleted:count 1
attr title "ARP completed resolutions, count"
scalar Scenario.normal_car[4].ipv4.arp arpResolutionInitiated:count 1
attr title "ARP initiated resolutions, count"
scalar Scenario.normal_car[4].ipv4.arp arpReplySent:count 0
attr source arpReplySent
attr title "ARP replies sent, count"
scalar Scenario.normal_car[4].ipv4.arp arpReplySent:sum(packetBytes) 0
attr source arpReplySent
attr title "ARP replies sent, sum(packetBytes)"
scalar Scenario.normal_car[4].ipv4.arp arpRequestSent:count 1
attr source arpRequestSent
attr title "ARP request sent, count"
scalar Scenario.normal_car[4].ipv4.arp arpRequestSent:sum(packetBytes) 28
attr source arpRequestSent
attr title "ARP request sent, sum(packetBytes)"
scalar Scenario.normal_car[4].udp packetReceived:count 42
attr interpolationmode none
attr source packetReceived
attr title "packets received, count"
scalar Scenario.normal_car[4].udp packetReceived:sum(packetBytes) 42344
attr interpolationmode none
attr source packetReceived
attr title "packets received, sum(packetBytes)"
scalar Scenario.normal_car[4].udp packetSent:count 1
attr interpolationmode none
attr source packetSent
attr title "packets sent, count"
scalar Scenario.normal_car[4].udp packetSent:sum(packetBytes) 28
attr interpolationmode none
attr source packetSent
attr title "packets sent, sum(packetBytes)"
scalar Scenario.normal_car[4].udp passedUpPk:count 42
attr interpolationmode none
attr source packetSentToUpper
attr title "packets passed up, count"
scalar Scenario.normal_car[4].udp droppedPkWrongPort:count 0
attr interpolationmode none
attr source packetDropReasonIsNoPortFound(packetDropped)
attr title "packets dropped (wrong port), count"
scalar Scenario.normal_car[4].udp droppedPkBadChecksum:count 0
attr interpolationmode none
attr source packetDropReasonIsIncorrectlyReceived(packetDropped)
attr title "packets dropped (checksum error), count"
scalar Scenario.normal_car[4].app[0] packetReceived:count 41
attr interpolationmode none
attr source packetReceived
attr title "packets received, count"
scalar Scenario.normal_car[4].app[0] packetReceived:sum(packetBytes) 41984
attr interpolationmode none
attr source packetReceived
attr title "packets received, sum(packetBytes)"
statistic Scenario.normal_car[4].app[0] endToEndDelay:histogram
field count 41
field mean 0.0044495483671951
field stddev 0.00064804857501269
field min 0.004348218823
field max 0.008497875707
field sum 0.182431483055
field sqrsum 0.0008285363857754
attr interpolationmode none
attr source dataAge(packetReceived)
attr title "end-to-end delay, histogram"
attr unit s
bin	-inf	0
bin	0.0033	0
bin	0.0034	0
bin	0.0035	0
bin	0.0036	0
bin	0.0037	0
bin	0.0038	0
bin	0.0039	0
bin	0.004	0
bin	0.0041	0
bin	0.0042	0
bin	0.0043	40
bin	0.0044	0
bin	0.0045	0
bin	0.0046	0
bin	0.0047	0
bin	0.0048	0
bin	0.0049	0
bin	0.005	0
bin	0.0051	0
bin	0.0052	0
bin	0.0053	0
bin	0.0054	0
bin	0.0055	0
bin	0.0056	0
bin	0.0057	0
bin	0.0058	0
bin	0.0059	0
bin	0.006	0
bin	0.0061	0
bin	0.0062	0
bin	0.0063	0
bin	0.0064	0
bin	0.0065	0
bin	0.0066	0
bin	0.0067	0
bin	0.0068	0
bin	0.0069	0
bin	0.007	0
bin	0.0071	0
bin	0.0072	0
bin	0.0073	0
bin	0.0074	0
bin	0.0075	0
bin	0.0076	0
bin	0.0077	0
bin	0.0078	0
bin	0.0079	0
bin	0.008	0
bin	0.0081	0
bin	0.0082	0
bin	0.0083	0
bin	0.0084	1
bin	0.0085	0
bin	0.0086	0
bin	0.0087	0
bin	0.0088	0
bin	0.0089	0
bin	0.009	0
bin	0.0091	0
bin	0.0092	0
bin	0.0093	0
bin	0.0094	0
bin	0.0095	0
bin	0.0096	0
scalar Scenario.normal_car[5].energyStorage residualEnergyCapacity:last -0.1259130576142
attr interpolationmode linear
attr source residualEnergyCapacityChanged
attr title "Residual energy capacity, last"
scalar Scenario.normal_car[5].lo[0].lo rcvdPkFromHl:count 0
attr interpolationmode none
attr source packetReceivedFromUpper
attr title "packets received from higher layer, count"
scalar Scenario.normal_car[5].lo[0].lo rcvdPkFromHl:sum(packetBytes) 0
attr interpolationmode none
attr source packetReceivedFromUpper
attr title "packets received from higher layer, sum(packetBytes)"
scalar Scenario.normal_car[5].lo[0].lo passedUpPk:count 0
attr interpolationmode none
attr source packetSentToUpper
attr title "packets passed to higher layer, count"
scalar Scenario.normal_car[5].lo[0].lo passedUpPk:sum(packetBytes) 0
[...]
attr interpolationmode sample-hold
attr source receptionStateChanged
attr title "Radio reception state, count"
scalar Scenario.normal_car[13].wlan[0].radio transmissionState:count 1
attr interpolationmode sample-hold
attr source transmissionStateChanged
attr title "Radio transmission state, count"
statistic Scenario.normal_car[13].wlan[0].radio minSnir:histogram
field count 0
field mean -nan
field stddev nan
field min nan
field max nan
field sum 0
field sqrsum 0
attr source minimumSnir(packetSentToUpper)
attr title "Min SNIR, histogram"
bin	-inf	0
bin	0	0
bin	1	0
statistic Scenario.normal_car[13].wlan[0].radio packetErrorRate:histogram
field count 0
field mean -nan
field stddev nan
field min nan
field max nan
field sum 0
field sqrsum 0
attr source packetErrorRate(packetSentToUpper)
attr title "Packet error rate, histogram"
bin	-inf	0
bin	0	0
bin	1	0
statistic Scenario.normal_car[13].wlan[0].radio bitErrorRate:histogram
field count 0
field mean -nan
field stddev nan
field min nan
field max nan
field sum 0
field sqrsum 0
attr source bitErrorRate(packetSentToUpper)
attr title "Bit error rate, histogram"
bin	-inf	0
bin	0	0
bin	1	0
statistic Scenario.normal_car[13].wlan[0].radio symbolErrorRate:histogram
field count 0
field mean -nan
field stddev nan
field min nan
field max nan
field sum 0
field sqrsum 0
attr source symbolErrorRate(packetSentToUpper)
attr title "Symbol error rate, histogram"
bin	-inf	0
bin	0	0
bin	1	0
scalar Scenario.normal_car[13].ipv4.ip packetDropAddressResolutionFailed:count 0
attr interpolationmode none
attr source packetDropReasonIsAddressResolutionFailed(packetDropped)
attr title "packet drop: address resolution failed, count"
scalar Scenario.normal_car[13].ipv4.ip packetDropAddressResolutionFailed:sum(packetBytes) 0
attr interpolationmode none
attr source packetDropReasonIsAddressResolutionFailed(packetDropped)
attr title "packet drop: address resolution failed, sum(packetBytes)"
scalar Scenario.normal_car[13].ipv4.ip packetDropHopLimitReached:count 0
attr interpolationmode none
attr source packetDropReasonIsHopLimitReached(packetDropped)
attr title "packet drop: hop limit reached, count"
scalar Scenario.normal_car[13].ipv4.ip packetDropHopLimitReached:sum(packetBytes) 0
attr interpolationmode none
attr source packetDropReasonIsHopLimitReached(packetDropped)
attr title "packet drop: hop limit reached, sum(packetBytes)"
scalar Scenario.normal_car[13].ipv4.ip packetDropForwardingDisabled:count 0
attr interpolationmode none
attr source packetDropReasonIsForwardingDisabled(packetDropped)
attr title "packet drop: forwarding disabled, count"
scalar Scenario.normal_car[13].ipv4.ip packetDropForwardingDisabled:sum(packetBytes) 0
attr interpolationmode none
attr source packetDropReasonIsForwardingDisabled(packetDropped)
attr title "packet drop: forwarding disabled, sum(packetBytes)"
scalar Scenario.normal_car[13].ipv4.ip packetDropNoInterfaceFound:count 0
attr interpolationmode none
attr source packetDropReasonIsNoInterfaceFound(packetDropped)
attr title "packet drop: no interface found, count"
scalar Scenario.normal_car[13].ipv4.ip packetDropNoInterfaceFound:sum(packetBytes) 0
attr interpolationmode none
attr source packetDropReasonIsNoInterfaceFound(packetDropped)
attr title "packet drop: no interface found, sum(packetBytes)"
scalar Scenario.normal_car[13].ipv4.ip packetDropNoRouteFound:count 0
attr interpolationmode none
attr source packetDropReasonIsNoRouteFound(packetDropped)
attr title "packet drop: no route found, count"
scalar Scenario.normal_car[13].ipv4.ip packetDropNoRouteFound:sum(packetBytes) 0
attr interpolationmode none
attr source packetDropReasonIsNoRouteFound(packetDropped)
attr title "packet drop: no route found, sum(packetBytes)"
scalar Scenario.normal_car[13].ipv4.ip packetDropUndefined:count 0
attr interpolationmode none
attr source packetDropReasonIsUndefined(packetDropped)
attr title "packet drop: undefined, count"
scalar Scenario.normal_car[13].ipv4.ip packetDropUndefined:sum(packetBytes) 0
attr interpolationmode none
attr source packetDropReasonIsUndefined(packetDropped)
attr title "packet drop: undefined, sum(packetBytes)"
scalar Scenario.normal_car[13].ipv4.arp arpResolutionFailed:count 0
attr title "ARP failed resolutions, count"
scalar Scenario.normal_car[13].ipv4.arp arpResolutionCompleted:count 0
attr title "ARP completed resolutions, count"
scalar Scenario.normal_car[13].ipv4.arp arpResolutionInitiated:count 0
attr title "ARP initiated resolutions, count"
scalar Scenario.normal_car[13].ipv4.arp arpReplySent:count 0
attr source arpReplySent
attr title "ARP replies sent, count"
scalar Scenario.normal_car[13].ipv4.arp arpReplySent:sum(packetBytes) 0
attr source arpReplySent
attr title "ARP replies sent, sum(packetBytes)"
scalar Scenario.normal_car[13].ipv4.arp arpRequestSent:count 0
attr source arpRequestSent
attr title "ARP request sent, count"
scalar Scenario.normal_car[13].ipv4.arp arpRequestSent:sum(packetBytes) 0
attr source arpRequestSent
attr title "ARP request sent, sum(packetBytes)"
scalar Scenario.normal_car[13].udp packetReceived:count 0
attr interpolationmode none
attr source packetReceived
attr title "packets received, count"
scalar Scenario.normal_car[13].udp packetReceived:sum(packetBytes) 0
attr interpolationmode none
attr source packetReceived
attr title "packets received, sum(packetBytes)"
scalar Scenario.normal_car[13].udp packetSent:count 0
attr interpolationmode none
attr source packetSent
attr title "packets sent, count"
scalar Scenario.normal_car[13].udp packetSent:sum(packetBytes) 0
attr interpolationmode none
attr source packetSent
attr title "packets sent, sum(packetBytes)"
scalar Scenario.normal_car[13].udp passedUpPk:count 0
attr interpolationmode none
attr source packetSentToUpper
attr title "packets passed up, count"
scalar Scenario.normal_car[13].udp droppedPkWrongPort:count 0
attr interpolationmode none
attr source packetDropReasonIsNoPortFound(packetDropped)
attr title "packets dropped (wrong port), count"
scalar Scenario.normal_car[13].udp droppedPkBadChecksum:count 0
attr interpolationmode none
attr source packetDropReasonIsIncorrectlyReceived(packetDropped)
attr title "packets dropped (checksum error), count"
scalar Scenario.normal_car[13].app[0] packetReceived:count 0
attr interpolationmode none
attr source packetReceived
attr title "packets received, count"
scalar Scenario.normal_car[13].app[0] packetReceived:sum(packetBytes) 0
attr interpolationmode none
attr source packetReceived
attr title "packets received, sum(packetBytes)"
statistic Scenario.normal_car[13].app[0] endToEndDelay:histogram
field count 0
field mean -nan
field stddev nan
field min nan
field max nan
field sum 0
field sqrsum 0
attr interpolationmode none
attr source dataAge(packetReceived)
attr title "end-to-end delay, histogram"
attr unit s
bin	-inf	0
bin	0	0
bin	1	0
scalar Scenario.normal_car[14].energyStorage residualEnergyCapacity:last 0
attr interpolationmode linear
attr source residualEnergyCapacityChanged
attr title "Residual energy capacity, last"
scalar Scenario.normal_car[14].lo[0].lo rcvdPkFromHl:count 0
attr interpolationmode none
attr source packetReceivedFromUpper
attr title "packets received from higher layer, count"
scalar Scenario.normal_car[14].lo[0].lo rcvdPkFromHl:sum(packetBytes) 0
attr interpolationmode none
attr source packetReceivedFromUpper
attr title "packets received from higher layer, sum(packetBytes)"
scalar Scenario.normal_car[14].lo[0].lo passedUpPk:count 0
attr interpolationmode none
attr source packetSentToUpper
attr title "packets passed to higher layer, count"
scalar Scenario.normal_car[14].lo[0].lo passedUpPk:sum(packetBytes) 0
attr interpolationmode none
attr source packetSentToUpper
attr title "packets passed to higher layer, sum(packetBytes)"
scalar Scenario.normal_car[14].wlan[0].mac.queue packetPopped:count 0
attr interpolationmode none
attr title "packet popped, count"
scalar Scenario.normal_car[14].wlan[0].mac.queue packetPopped:sum(packetBytes) 0
attr interpolationmode none
attr title "packet popped, sum(packetBytes)"
statistic Scenario.normal_car[14].wlan[0].mac.queue queueingTime:histogram
field count 0
field mean -nan
field stddev nan
field min nan
field max nan
field sum 0
field sqrsum 0
attr interpolationmode none
attr source queueingTime(packetPopped)
attr title "queueing times, histogram"
attr unit s
bin	-inf	0
bin	0	0
bin	1	0
scalar Scenario.normal_car[14].wlan[0].mac.queue queueLength:max nan
attr interpolationmode sample-hold
attr source "count(packetPushed) - count(packetPopped) - count(packetRemoved) - count(packetDropped)"
attr title "queue length, max"
scalar Scenario.normal_car[14].wlan[0].mac.queue queueLength:timeavg -nan
attr interpolationmode sample-hold
attr source "count(packetPushed) - count(packetPopped) - count(packetRemoved) - count(packetDropped)"
attr title "queue length, timeavg"
scalar Scenario.normal_car[14].wlan[0].mac.queue packetPushed:count 0
attr interpolationmode none
attr title "packet pushed, count"
scalar Scenario.normal_car[14].wlan[0].mac.queue packetPushed:sum(packetBytes) 0
attr interpolationmode none
attr title "packet pushed, sum(packetBytes)"
scalar Scenario.normal_car[14].wlan[0].mac.queue packetDropQueueOverflow:count 0
attr interpolationmode none
attr source packetDropReasonIsQueueOverflow(packetDropped)
attr title "packet drops: queue overflow, count"
scalar Scenario.normal_car[14].wlan[0].mac.queue packetDropQueueOverflow:sum(packetBytes) 0
attr interpolationmode none
attr source packetDropReasonIsQueueOverflow(packetDropped)
attr title "packet drops: queue overflow, sum(packetBytes)"
scalar Scenario.normal_car[14].wlan[0].mac.queue packetRemoved:count 0
attr interpolationmode none
attr title "packets removed, count"
scalar Scenario.normal_car[14].wlan[0].mac.queue packetRemoved:sum(packetBytes) 0
attr interpolationmode none
attr title "packets removed, sum(packetBytes)"
scalar Scenario.normal_car[14].wlan[0].mac rcvdPkFromLl:count 0
attr interpolationmode none
attr source packetReceivedFromLower
attr title "packets received from lower layer, count"
scalar Scenario.normal_car[14].wlan[0].mac rcvdPkFromLl:sum(packetBytes) 0
attr interpolationmode none
attr source packetReceivedFromLower
attr title "packets received from lower layer, sum(packetBytes)"
scalar Scenario.normal_car[14].wlan[0].mac sentDownPk:count 0
attr interpolationmode none
attr source packetSentToLower
attr title "packets sent to lower layer, count"
scalar Scenario.normal_car[14].wlan[0].mac sentDownPk:sum(packetBytes) 0
attr interpolationmode none
attr source packetSentToLower
attr title "packets sent to lower layer, sum(packetBytes)"
scalar Scenario.normal_car[14].wlan[0].mac rcvdPkFromHl:count 0
attr interpolationmode none
attr source packetReceivedFromUpper
attr title "packets received from higher layer, count"
scalar Scenario.normal_car[14].wlan[0].mac rcvdPkFromHl:sum(packetBytes) 0
attr interpolationmode none
attr source packetReceivedFromUpper
attr title "packets received from higher layer, sum(packetBytes)"
scalar Scenario.normal_car[14].wlan[0].mac passedUpPk:count 0
attr interpolationmode none
attr source packetSentToUpper
attr title "packets passed to higher layer, count"
scalar Scenario.normal_car[14].wlan[0].mac passedUpPk:sum(packetBytes) 0
attr interpolationmode none
attr source packetSentToUpper
attr title "packets passed to higher layer, sum(packetBytes)"
scalar Scenario.normal_car[14].wlan[0].mac packetDropIncorrectlyReceived:count 0
attr interpolationmode none
attr source packetDropReasonIsIncorrectlyReceived(packetDropped)
attr title "packet drop: incorrectly received, count"
scalar Scenario.normal_car[14].wlan[0].mac packetDropIncorrectlyReceived:sum(packetBytes) 0
attr interpolationmode none
attr source packetDropReasonIsIncorrectlyReceived(packetDropped)
attr title "packet drop: incorrectly received, sum(packetBytes)"
scalar Scenario.normal_car[14].wlan[0].mac packetDropInterfaceDown:count 0
attr interpolationmode none
attr source packetDropReasonIsInterfaceDown(packetDropped)
attr title "packet drop: interface down, count"
scalar Scenario.normal_car[14].wlan[0].mac packetDropInterfaceDown:sum(packetBytes) 0
attr interpolationmode none
attr source packetDropReasonIsInterfaceDown(packetDropped)
attr title "packet drop: interface down, sum(packetBytes)"
scalar Scenario.normal_car[14].wlan[0].mac packetDropNotAddressedToUs:count 0
attr interpolationmode none
attr source packetDropReasonIsNotAddressedToUs(packetDropped)
attr title "packet drop: not addressed to us, count"
scalar Scenario.normal_car[14].wlan[0].mac packetDropNotAddressedToUs:sum(packetBytes) 0
attr interpolationmode none
attr source packetDropReasonIsNotAddressedToUs(packetDropped)
attr title "packet drop: not addressed to us, sum(packetBytes)"
scalar Scenario.normal_car[14].wlan[0].mac linkBroken:count 0
attr interpolationmode none
attr source linkBroken
attr title "link break, count"
scalar Scenario.normal_car[14].wlan[0].radio radioMode:count 3
attr interpolationmode sample-hold
attr source radioModeChanged
attr title "Radio mode, count"
scalar Scenario.normal_car[14].wlan[0].radio receptionState:count 1
attr interpolationmode sample-hold
attr source receptionStateChanged
attr title "Radio reception state, count"
scalar Scenario.normal_car[14].wlan[0].radio transmissionState:count 1
attr interpolationmode sample-hold
attr source transmissionStateChanged
attr title "Radio transmission state, count"
statistic Scenario.normal_car[14].wlan[0].radio minSnir:histogram
field count 0
field mean -nan
field stddev nan
field min nan
field max nan
field sum 0
field sqrsum 0
attr source minimumSnir(packetSentToUpper)
attr title "Min SNIR, histogram"
bin	-inf	0
bin	0	0
bin	1	0
statistic Scenario.normal_car[14].wlan[0].radio packetErrorRate:histogram
field count 0
field mean -nan
field stddev nan
field min nan
field max nan
field sum 0
field sqrsum 0
attr source packetErrorRate(packetSentToUpper)
attr title "Packet error rate, histogram"
bin	-inf	0
bin	0	0
bin	1	0
statistic Scenario.normal_car[14].wlan[0].radio bitErrorRate:histogram
field count 0
field mean -nan
field stddev nan
field min nan
field max nan
field sum 0
field sqrsum 0
attr source bitErrorRate(packetSentToUpper)
attr title "Bit error rate, histogram"
bin	-inf	0
bin	0	0
bin	1	0
statistic Scenario.normal_car[14].wlan[0].radio symbolErrorRate:histogram
field count 0
field mean -nan
field stddev nan
field min nan
field max nan
field sum 0
field sqrsum 0
attr source symbolErrorRate(packetSentToUpper)
attr title "Symbol error rate, histogram"
bin	-inf	0
bin	0	0
bin	1	0
scalar Scenario.normal_car[14].ipv4.ip packetDropAddressResolutionFailed:count 0
attr interpolationmode none
attr source packetDropReasonIsAddressResolutionFailed(packetDropped)
attr title "packet drop: address resolution failed, count"
scalar Scenario.normal_car[14].ipv4.ip packetDropAddressResolutionFailed:sum(packetBytes) 0
attr interpolationmode none
attr source packetDropReasonIsAddressResolutionFailed(packetDropped)
attr title "packet drop: address resolution failed, sum(packetBytes)"
scalar Scenario.normal_car[14].ipv4.ip packetDropHopLimitReached:count 0
attr interpolationmode none
attr source packetDropReasonIsHopLimitReached(packetDropped)
attr title "packet drop: hop limit reached, count"
scalar Scenario.normal_car[14].ipv4.ip packetDropHopLimitReached:sum(packetBytes) 0
attr interpolationmode none
attr source packetDropReasonIsHopLimitReached(packetDropped)
attr title "packet drop: hop limit reached, sum(packetBytes)"
scalar Scenario.normal_car[14].ipv4.ip packetDropForwardingDisabled:count 0
attr interpolationmode none
attr source packetDropReasonIsForwardingDisabled(packetDropped)
attr title "packet drop: forwarding disabled, count"
scalar Scenario.normal_car[14].ipv4.ip packetDropForwardingDisabled:sum(packetBytes) 0
attr interpolationmode none
attr source packetDropReasonIsForwardingDisabled(packetDropped)
attr title "packet drop: forwarding disabled, sum(packetBytes)"
scalar Scenario.normal_car[14].ipv4.ip packetDropNoInterfaceFound:count 0
attr interpolationmode none
attr source packetDropReasonIsNoInterfaceFound(packetDropped)
attr title "packet drop: no interface found, count"
scalar Scenario.normal_car[14].ipv4.ip packetDropNoInterfaceFound:sum(packetBytes) 0
attr interpolationmode none
attr source packetDropReasonIsNoInterfaceFound(packetDropped)
attr title "packet drop: no interface found, sum(packetBytes)"
scalar Scenario.normal_car[14].ipv4.ip packetDropNoRouteFound:count 0
attr interpolationmode none
attr source packetDropReasonIsNoRouteFound(packetDropped)
attr title "packet drop: no route found, count"
scalar Scenario.normal_car[14].ipv4.ip packetDropNoRouteFound:sum(packetBytes) 0
attr interpolationmode none
attr source packetDropReasonIsNoRouteFound(packetDropped)
attr title "packet drop: no route found, sum(packetBytes)"
scalar Scenario.normal_car[14].ipv4.ip packetDropUndefined:count 0
attr interpolationmode none
attr source packetDropReasonIsUndefined(packetDropped)
attr title "packet drop: undefined, count"
scalar Scenario.normal_car[14].ipv4.ip packetDropUndefined:sum(packetBytes) 0
attr interpolationmode none
attr source packetDropReasonIsUndefined(packetDropped)
attr title "packet drop: undefined, sum(packetBytes)"
scalar Scenario.normal_car[14].ipv4.arp arpResolutionFailed:count 0
attr title "ARP failed resolutions, count"
scalar Scenario.normal_car[14].ipv4.arp arpResolutionCompleted:count 0
attr title "ARP completed resolutions, count"
scalar Scenario.normal_car[14].ipv4.arp arpResolutionInitiated:count 0
attr title "ARP initiated resolutions, count"
scalar Scenario.normal_car[14].ipv4.arp arpReplySent:count 0
attr source arpReplySent
attr title "ARP replies sent, count"
scalar Scenario.normal_car[14].ipv4.arp arpReplySent:sum(packetBytes) 0
attr source arpReplySent
attr title "ARP replies sent, sum(packetBytes)"
scalar Scenario.normal_car[14].ipv4.arp arpRequestSent:count 0
attr source arpRequestSent
attr title "ARP request sent, count"
scalar Scenario.normal_car[14].ipv4.arp arpRequestSent:sum(packetBytes) 0
attr source arpRequestSent
attr title "ARP request sent, sum(packetBytes)"
scalar Scenario.normal_car[14].udp packetReceived:count 0
attr interpolationmode none
attr source packetReceived
attr title "packets received, count"
scalar Scenario.normal_car[14].udp packetReceived:sum(packetBytes) 0
attr interpolationmode none
attr source packetReceived
attr title "packets received, sum(packetBytes)"
scalar Scenario.normal_car[14].udp packetSent:count 0
attr interpolationmode none
attr source packetSent
attr title "packets sent, count"
scalar Scenario.normal_car[14].udp packetSent:sum(packetBytes) 0
attr interpolationmode none
attr source packetSent
attr title "packets sent, sum(packetBytes)"
scalar Scenario.normal_car[14].udp passedUpPk:count 0
attr interpolationmode none
attr source packetSentToUpper
attr title "packets passed up, count"
scalar Scenario.normal_car[14].udp droppedPkWrongPort:count 0
attr interpolationmode none
attr source packetDropReasonIsNoPortFound(packetDropped)
attr title "packets dropped (wrong port), count"
scalar Scenario.normal_car[14].udp droppedPkBadChecksum:count 0
attr interpolationmode none
attr source packetDropReasonIsIncorrectlyReceived(packetDropped)
attr title "packets dropped (checksum error), count"
scalar Scenario.normal_car[14].app[0] packetReceived:count 0
attr interpolationmode none
attr source packetReceived
attr title "packets received, count"
scalar Scenario.normal_car[14].app[0] packetReceived:sum(packetBytes) 0
attr interpolationmode none
attr source packetReceived
attr title "packets received, sum(packetBytes)"
statistic Scenario.normal_car[14].app[0] endToEndDelay:histogram
field count 0
field mean -nan
field stddev nan
field min nan
field max nan
field sum 0
field sqrsum 0
attr interpolationmode none
attr source dataAge(packetReceived)
attr title "end-to-end delay, histogram"
attr unit s
bin	-inf	0
bin	0	0
bin	1	0

