version 2
run General-0-20230517-01:07:38-4372
attr configname General
attr datetime 20230517-01:07:38
attr experiment General
attr inifile omnetpp.ini
attr iterationvars ""
attr iterationvarsf ""
attr measurement ""
attr network Scenario
attr processid 4372
attr repetition 0
attr replication #0
attr resultdir results
attr runnumber 0
attr seedset 0
param *.normal_car[*].ipv4.arp.typename "\"Arp\""
param *.normal_car[1].numApps 1
param *.normal_car[1].app[0].typename "\"UdpBasicApp\""
param *.normal_car[1].app[0].destAddresses "\"normal_car[4]\""
param *.normal_car[1].app[0].localPort 5000
param *.normal_car[1].app[0].destPort 5000
param *.normal_car[1].app[0].messageLength 1024B
param *.normal_car[1].app[0].sendInterval 1s
param *.normal_car[1].app[0].startTime 20s
param *.normal_car[1].app[0].packetName "\"UDPData\""
param *.normal_car[*].numApps 1
param *.normal_car[*].app[0].typename "\"UdpSink\""
param *.normal_car[*].app[0].localPort 5000
param *.normal_car[*].routing.deletePeriod 5s
param *.*_car[*].wlan[*].typename "\"AckingWirelessInterface\""
param *.*_car[*].wlan[*].bitrate 2Mbps
param *.*_car[*].wlan[*].mac.headerLength 23B
param *.*_car[*].wlan[*].radio.typename "\"UnitDiskRadio\""
param *.*_car[*].wlan[*].radio.transmitter.headerLength 96b
param *.*_car[*].wlan[*].radio.transmitter.communicationRange 120m
param *.*_car[*].wlan[*].radio.transmitter.interferenceRange 0m
param *.*_car[*].wlan[*].radio.transmitter.detectionRange 0m
param *.*_car[*].wlan[*].radio.receiver.ignoreInterference true
param *.*_car[*].ipv4.configurator.typename "\"HostAutoConfigurator\""
param *.*_car[*].ipv4.configurator.interfaces "\"wlan0\""
param *.*_car[*].ipv4.configurator.mcastGroups "\"224.0.0.1\""
param *.*_car[*].mobility.typename "\"VeinsInetMobility\""
param *.manager.updateInterval 0.1s
param *.manager.launchConfig "xmldoc(\"arcavacatamap.launchd.xml\")"
param *.manager.moduleType "\"normal_car=networkprojectvanet.veins_inet.AodvCar *=networkprojectvanet.veins_inet.AodvCar\""
param *.manager.moduleDisplayString "\"normal_car='i=veins/node/car;is=vs' *='i=veins/node/car;is=vs'\""
param *.manager.moduleName "\"normal_car=normal_car *=normal_car\""
param *.*_car[*].wlan[0].radio.energyConsumer.typename "\"StateBasedEpEnergyConsumer\""
param *.*_car[*].wlan[0].radio.energyConsumer.offPowerConsumption 0mW
param *.*_car[*].wlan[0].radio.energyConsumer.sleepPowerConsumption 1mW
param *.*_car[*].wlan[0].radio.energyConsumer.switchingPowerConsumption 1mW
param *.*_car[*].wlan[0].radio.energyConsumer.receiverIdlePowerConsumption 2mW
param *.*_car[*].wlan[0].radio.energyConsumer.receiverBusyPowerConsumption 5mW
param *.*_car[*].wlan[0].radio.energyConsumer.receiverReceivingPowerConsumption 10mW
param *.*_car[*].wlan[0].radio.energyConsumer.transmitterIdlePowerConsumption 2mW
param *.*_car[*].wlan[0].radio.energyConsumer.transmitterTransmittingPowerConsumption 100mW
param *.*_car[*].energyStorage.typename "\"IdealEpEnergyStorage\""
param *.*_car[*].wlan[0].radio.displayCommunicationRange true
param *.visualizer.networkRouteVisualizer.displayRoutes true

vector 0 Scenario.normal_car[0].energyStorage residualEnergyCapacity:vector ETV
attr interpolationmode linear
attr source residualEnergyCapacityChanged
attr title "Residual energy capacity, vector"
vector 1 Scenario.normal_car[0].energyStorage powerConsumption:vector ETV
attr interpolationmode sample-hold
attr source powerConsumptionChanged
attr title "Power consumption, vector"
vector 2 Scenario.normal_car[0].wlan[0].radio radioMode:vector ETV
attr interpolationmode sample-hold
attr source radioModeChanged
attr title "Radio mode, vector"
vector 3 Scenario.normal_car[0].wlan[0].radio.energyConsumer powerConsumption:vector ETV
attr interpolationmode sample-hold
attr source powerConsumptionChanged
attr title "Power consumption, vector"
vector 4 Scenario.normal_car[0].wlan[0].radio receptionState:vector ETV
attr interpolationmode sample-hold
attr source receptionStateChanged
attr title "Radio reception state, vector"
vector 5 Scenario.normal_car[0].wlan[0].radio transmissionState:vector ETV
attr interpolationmode sample-hold
attr source transmissionStateChanged
attr title "Radio transmission state, vector"
vector 6 Scenario.normal_car[1].energyStorage residualEnergyCapacity:vector ETV
attr interpolationmode linear
attr source residualEnergyCapacityChanged
attr title "Residual energy capacity, vector"
vector 7 Scenario.normal_car[1].energyStorage powerConsumption:vector ETV
attr interpolationmode sample-hold
attr source powerConsumptionChanged
attr title "Power consumption, vector"
vector 8 Scenario.normal_car[1].wlan[0].radio radioMode:vector ETV
attr interpolationmode sample-hold
attr source radioModeChanged
attr title "Radio mode, vector"
vector 9 Scenario.normal_car[1].wlan[0].radio.energyConsumer powerConsumption:vector ETV
attr interpolationmode sample-hold
attr source powerConsumptionChanged
attr title "Power consumption, vector"
vector 10 Scenario.normal_car[1].wlan[0].radio receptionState:vector ETV
attr interpolationmode sample-hold
attr source receptionStateChanged
attr title "Radio reception state, vector"
vector 11 Scenario.normal_car[1].wlan[0].radio transmissionState:vector ETV
attr interpolationmode sample-hold
attr source transmissionStateChanged
attr title "Radio transmission state, vector"
vector 12 Scenario.normal_car[2].energyStorage residualEnergyCapacity:vector ETV
attr interpolationmode linear
attr source residualEnergyCapacityChanged
attr title "Residual energy capacity, vector"
vector 13 Scenario.normal_car[2].energyStorage powerConsumption:vector ETV
attr interpolationmode sample-hold
attr source powerConsumptionChanged
attr title "Power consumption, vector"
vector 14 Scenario.normal_car[2].wlan[0].radio radioMode:vector ETV
attr interpolationmode sample-hold
attr source radioModeChanged
attr title "Radio mode, vector"
vector 15 Scenario.normal_car[2].wlan[0].radio.energyConsumer powerConsumption:vector ETV
attr interpolationmode sample-hold
attr source powerConsumptionChanged
attr title "Power consumption, vector"
vector 16 Scenario.normal_car[2].wlan[0].radio receptionState:vector ETV
attr interpolationmode sample-hold
attr source receptionStateChanged
attr title "Radio reception state, vector"
vector 17 Scenario.normal_car[2].wlan[0].radio transmissionState:vector ETV
attr interpolationmode sample-hold
attr source transmissionStateChanged
attr title "Radio transmission state, vector"
vector 18 Scenario.normal_car[3].energyStorage residualEnergyCapacity:vector ETV
attr interpolationmode linear
attr source residualEnergyCapacityChanged
attr title "Residual energy capacity, vector"
vector 19 Scenario.normal_car[3].energyStorage powerConsumption:vector ETV
attr interpolationmode sample-hold
attr source powerConsumptionChanged
attr title "Power consumption, vector"
vector 20 Scenario.normal_car[3].wlan[0].radio radioMode:vector ETV
attr interpolationmode sample-hold
attr source radioModeChanged
attr title "Radio mode, vector"
vector 21 Scenario.normal_car[3].wlan[0].radio.energyConsumer powerConsumption:vector ETV
attr interpolationmode sample-hold
attr source powerConsumptionChanged
attr title "Power consumption, vector"
vector 22 Scenario.normal_car[3].wlan[0].radio receptionState:vector ETV
attr interpolationmode sample-hold
attr source receptionStateChanged
attr title "Radio reception state, vector"
vector 23 Scenario.normal_car[3].wlan[0].radio transmissionState:vector ETV
attr interpolationmode sample-hold
attr source transmissionStateChanged
attr title "Radio transmission state, vector"
vector 24 Scenario.normal_car[4].energyStorage residualEnergyCapacity:vector ETV
attr interpolationmode linear
attr source residualEnergyCapacityChanged
attr title "Residual energy capacity, vector"
vector 25 Scenario.normal_car[4].energyStorage powerConsumption:vector ETV
attr interpolationmode sample-hold
attr source powerConsumptionChanged
attr title "Power consumption, vector"
vector 26 Scenario.normal_car[4].wlan[0].radio radioMode:vector ETV
attr interpolationmode sample-hold
attr source radioModeChanged
attr title "Radio mode, vector"
vector 27 Scenario.normal_car[4].wlan[0].radio.energyConsumer powerConsumption:vector ETV
attr interpolationmode sample-hold
attr source powerConsumptionChanged
attr title "Power consumption, vector"
vector 28 Scenario.normal_car[4].wlan[0].radio receptionState:vector ETV
attr interpolationmode sample-hold
attr source receptionStateChanged
attr title "Radio reception state, vector"
vector 29 Scenario.normal_car[4].wlan[0].radio transmissionState:vector ETV
attr interpolationmode sample-hold
attr source transmissionStateChanged
attr title "Radio transmission state, vector"
vector 30 Scenario.normal_car[5].energyStorage residualEnergyCapacity:vector ETV
attr interpolationmode linear
attr source residualEnergyCapacityChanged
attr title "Residual energy capacity, vector"
vector 31 Scenario.normal_car[5].energyStorage powerConsumption:vector ETV
attr interpolationmode sample-hold
attr source powerConsumptionChanged
attr title "Power consumption, vector"
vector 32 Scenario.normal_car[5].wlan[0].radio radioMode:vector ETV
attr interpolationmode sample-hold
attr source radioModeChanged
attr title "Radio mode, vector"
vector 33 Scenario.normal_car[5].wlan[0].radio.energyConsumer powerConsumption:vector ETV
attr interpolationmode sample-hold
attr source powerConsumptionChanged
attr title "Power consumption, vector"
vector 34 Scenario.normal_car[5].wlan[0].radio receptionState:vector ETV
attr interpolationmode sample-hold
attr source receptionStateChanged
attr title "Radio reception state, vector"
vector 35 Scenario.normal_car[5].wlan[0].radio transmissionState:vector ETV
attr interpolationmode sample-hold
attr source transmissionStateChanged
attr title "Radio transmission state, vector"
vector 36 Scenario.normal_car[6].energyStorage residualEnergyCapacity:vector ETV
attr interpolationmode linear
attr source residualEnergyCapacityChanged
attr title "Residual energy capacity, vector"
vector 37 Scenario.normal_car[6].energyStorage powerConsumption:vector ETV
attr interpolationmode sample-hold
attr source powerConsumptionChanged
attr title "Power consumption, vector"
vector 38 Scenario.normal_car[6].wlan[0].radio radioMode:vector ETV
attr interpolationmode sample-hold
attr source radioModeChanged
attr title "Radio mode, vector"
vector 39 Scenario.normal_car[6].wlan[0].radio.energyConsumer powerConsumption:vector ETV
attr interpolationmode sample-hold
attr source powerConsumptionChanged
attr title "Power consumption, vector"
vector 40 Scenario.normal_car[6].wlan[0].radio receptionState:vector ETV
attr interpolationmode sample-hold
attr source receptionStateChanged
attr title "Radio reception state, vector"
vector 41 Scenario.normal_car[6].wlan[0].radio transmissionState:vector ETV
attr interpolationmode sample-hold
attr source transmissionStateChanged
attr title "Radio transmission state, vector"
vector 42 Scenario.normal_car[7].energyStorage residualEnergyCapacity:vector ETV
attr interpolationmode linear
attr source residualEnergyCapacityChanged
attr title "Residual energy capacity, vector"
vector 43 Scenario.normal_car[7].energyStorage powerConsumption:vector ETV
attr interpolationmode sample-hold
attr source powerConsumptionChanged
attr title "Power consumption, vector"
vector 44 Scenario.normal_car[7].wlan[0].radio radioMode:vector ETV
attr interpolationmode sample-hold
attr source radioModeChanged
attr title "Radio mode, vector"
vector 45 Scenario.normal_car[7].wlan[0].radio.energyConsumer powerConsumption:vector ETV
attr interpolationmode sample-hold
attr source powerConsumptionChanged
attr title "Power consumption, vector"
vector 46 Scenario.normal_car[7].wlan[0].radio receptionState:vector ETV
attr interpolationmode sample-hold
attr source receptionStateChanged
attr title "Radio reception state, vector"
vector 47 Scenario.normal_car[7].wlan[0].radio transmissionState:vector ETV
attr interpolationmode sample-hold
attr source transmissionStateChanged
attr title "Radio transmission state, vector"
vector 48 Scenario.normal_car[8].energyStorage residualEnergyCapacity:vector ETV
attr interpolationmode linear
attr source residualEnergyCapacityChanged
attr title "Residual energy capacity, vector"
vector 49 Scenario.normal_car[8].energyStorage powerConsumption:vector ETV
attr interpolationmode sample-hold
attr source powerConsumptionChanged
attr title "Power consumption, vector"
vector 50 Scenario.normal_car[8].wlan[0].radio radioMode:vector ETV
attr interpolationmode sample-hold
attr source radioModeChanged
attr title "Radio mode, vector"
vector 51 Scenario.normal_car[8].wlan[0].radio.energyConsumer powerConsumption:vector ETV
attr interpolationmode sample-hold
attr source powerConsumptionChanged
attr title "Power consumption, vector"
vector 52 Scenario.normal_car[8].wlan[0].radio receptionState:vector ETV
attr interpolationmode sample-hold
attr source receptionStateChanged
attr title "Radio reception state, vector"
vector 53 Scenario.normal_car[8].wlan[0].radio transmissionState:vector ETV
attr interpolationmode sample-hold
attr source transmissionStateChanged
attr title "Radio transmission state, vector"
vector 54 Scenario.normal_car[9].energyStorage residualEnergyCapacity:vector ETV
attr interpolationmode linear
attr source residualEnergyCapacityChanged
attr title "Residual energy capacity, vector"
vector 55 Scenario.normal_car[9].energyStorage powerConsumption:vector ETV
attr interpolationmode sample-hold
attr source powerConsumptionChanged
attr title "Power consumption, vector"
vector 56 Scenario.normal_car[9].wlan[0].radio radioMode:vector ETV
attr interpolationmode sample-hold
attr source radioModeChanged
attr title "Radio mode, vector"
vector 57 Scenario.normal_car[9].wlan[0].radio.energyConsumer powerConsumption:vector ETV
attr interpolationmode sample-hold
attr source powerConsumptionChanged
attr title "Power consumption, vector"
vector 58 Scenario.normal_car[9].wlan[0].radio receptionState:vector ETV
attr interpolationmode sample-hold
attr source receptionStateChanged
attr title "Radio reception state, vector"
vector 59 Scenario.normal_car[9].wlan[0].radio transmissionState:vector ETV
attr interpolationmode sample-hold
attr source transmissionStateChanged
attr title "Radio transmission state, vector"
vector 60 Scenario.normal_car[10].energyStorage residualEnergyCapacity:vector ETV
attr interpolationmode linear
attr source residualEnergyCapacityChanged
attr title "Residual energy capacity, vector"
vector 61 Scenario.normal_car[10].energyStorage powerConsumption:vector ETV
attr interpolationmode sample-hold
attr source powerConsumptionChanged
attr title "Power consumption, vector"
vector 62 Scenario.normal_car[10].wlan[0].radio radioMode:vector ETV
attr interpolationmode sample-hold
attr source radioModeChanged
attr title "Radio mode, vector"
vector 63 Scenario.normal_car[10].wlan[0].radio.energyConsumer powerConsumption:vector ETV
attr interpolationmode sample-hold
attr source powerConsumptionChanged
attr title "Power consumption, vector"
vector 64 Scenario.normal_car[10].wlan[0].radio receptionState:vector ETV
attr interpolationmode sample-hold
attr source receptionStateChanged
attr title "Radio reception state, vector"
vector 65 Scenario.normal_car[10].wlan[0].radio transmissionState:vector ETV
attr interpolationmode sample-hold
attr source transmissionStateChanged
attr title "Radio transmission state, vector"
vector 66 Scenario.normal_car[11].energyStorage residualEnergyCapacity:vector ETV
attr interpolationmode linear
attr source residualEnergyCapacityChanged
attr title "Residual energy capacity, vector"
vector 67 Scenario.normal_car[11].energyStorage powerConsumption:vector ETV
attr interpolationmode sample-hold
attr source powerConsumptionChanged
attr title "Power consumption, vector"
vector 68 Scenario.normal_car[11].wlan[0].radio radioMode:vector ETV
attr interpolationmode sample-hold
attr source radioModeChanged
attr title "Radio mode, vector"
vector 69 Scenario.normal_car[11].wlan[0].radio.energyConsumer powerConsumption:vector ETV
attr interpolationmode sample-hold
attr source powerConsumptionChanged
attr title "Power consumption, vector"
vector 70 Scenario.normal_car[11].wlan[0].radio receptionState:vector ETV
attr interpolationmode sample-hold
attr source receptionStateChanged
attr title "Radio reception state, vector"
vector 71 Scenario.normal_car[11].wlan[0].radio transmissionState:vector ETV
attr interpolationmode sample-hold
attr source transmissionStateChanged
attr title "Radio transmission state, vector"
vector 72 Scenario.normal_car[1].app[0] packetSent:vector(packetBytes) ETV
attr interpolationmode none
attr source packetSent
attr title "packets sent, vector(packetBytes)"
vector 73 Scenario.normal_car[1].udp packetSent:vector(packetBytes) ETV
attr interpolationmode none
attr source packetSent
attr title "packets sent, vector(packetBytes)"
vector 74 Scenario.normal_car[1].wlan[0].mac rcvdPkFromHl:vector(packetBytes) ETV
attr interpolationmode none
attr source packetReceivedFromUpper
attr title "packets received from higher layer, vector(packetBytes)"
vector 75 Scenario.normal_car[1].wlan[0].mac.queue packetPushed:vector(packetBytes) ETV
attr interpolationmode none
attr title "packet pushed, vector(packetBytes)"
vector 76 Scenario.normal_car[1].wlan[0].mac.queue queueLength:vector ETV
attr interpolationmode sample-hold
attr source "count(packetPushed) - count(packetPopped) - count(packetRemoved) - count(packetDropped)"
attr title "queue length, vector"
vector 77 Scenario.normal_car[1].wlan[0].mac.queue packetPopped:vector(packetBytes) ETV
attr interpolationmode none
attr title "packet popped, vector(packetBytes)"
vector 78 Scenario.normal_car[1].wlan[0].mac.queue queueingTime:vector ETV
attr interpolationmode none
attr source queueingTime(packetPopped)
attr title "queueing times, vector"
attr unit s
vector 79 Scenario.normal_car[1].wlan[0].mac sentDownPk:vector(packetBytes) ETV
attr interpolationmode none
attr source packetSentToLower
attr title "packets sent to lower layer, vector(packetBytes)"
vector 80 Scenario.normal_car[2].wlan[0].mac rcvdPkFromLl:vector(packetBytes) ETV
attr interpolationmode none
attr source packetReceivedFromLower
attr title "packets received from lower layer, vector(packetBytes)"
vector 81 Scenario.normal_car[2].wlan[0].mac passedUpPk:vector(packetBytes) ETV
attr interpolationmode none
attr source packetSentToUpper
attr title "packets passed to higher layer, vector(packetBytes)"
vector 82 Scenario.normal_car[2].udp packetReceived:vector(packetBytes) ETV
attr interpolationmode none
attr source packetReceived
attr title "packets received, vector(packetBytes)"
vector 83 Scenario.normal_car[2].udp passedUpPk:vector(count) ETV
attr interpolationmode none
attr source packetSentToUpper
attr title "packets passed up, vector(count)"
vector 84 Scenario.normal_car[4].wlan[0].mac rcvdPkFromLl:vector(packetBytes) ETV
attr interpolationmode none
attr source packetReceivedFromLower
attr title "packets received from lower layer, vector(packetBytes)"
vector 85 Scenario.normal_car[4].wlan[0].mac passedUpPk:vector(packetBytes) ETV
attr interpolationmode none
attr source packetSentToUpper
attr title "packets passed to higher layer, vector(packetBytes)"
vector 86 Scenario.normal_car[4].udp packetReceived:vector(packetBytes) ETV
attr interpolationmode none
attr source packetReceived
attr title "packets received, vector(packetBytes)"
vector 87 Scenario.normal_car[4].udp passedUpPk:vector(count) ETV
attr interpolationmode none
attr source packetSentToUpper
attr title "packets passed up, vector(count)"
vector 88 Scenario.normal_car[4].udp packetSent:vector(packetBytes) ETV
attr interpolationmode none
attr source packetSent
attr title "packets sent, vector(packetBytes)"
vector 89 Scenario.normal_car[4].ipv4.arp arpRequestSent:vector(packetBytes) ETV
attr source arpRequestSent
attr title "ARP request sent, vector(packetBytes)"
vector 90 Scenario.normal_car[4].wlan[0].mac rcvdPkFromHl:vector(packetBytes) ETV
attr interpolationmode none
attr source packetReceivedFromUpper
attr title "packets received from higher layer, vector(packetBytes)"
vector 91 Scenario.normal_car[4].wlan[0].mac.queue packetPushed:vector(packetBytes) ETV
attr interpolationmode none
attr title "packet pushed, vector(packetBytes)"
vector 92 Scenario.normal_car[4].wlan[0].mac.queue queueLength:vector ETV
attr interpolationmode sample-hold
attr source "count(packetPushed) - count(packetPopped) - count(packetRemoved) - count(packetDropped)"
attr title "queue length, vector"
vector 93 Scenario.normal_car[4].wlan[0].mac.queue packetPopped:vector(packetBytes) ETV
attr interpolationmode none
attr title "packet popped, vector(packetBytes)"
vector 94 Scenario.normal_car[4].wlan[0].mac.queue queueingTime:vector ETV
attr interpolationmode none
attr source queueingTime(packetPopped)
attr title "queueing times, vector"
attr unit s
vector 95 Scenario.normal_car[4].wlan[0].mac sentDownPk:vector(packetBytes) ETV
attr interpolationmode none
attr source packetSentToLower
attr title "packets sent to lower layer, vector(packetBytes)"
vector 96 Scenario.normal_car[6].wlan[0].mac rcvdPkFromLl:vector(packetBytes) ETV
attr interpolationmode none
attr source packetReceivedFromLower
attr title "packets received from lower layer, vector(packetBytes)"
vector 97 Scenario.normal_car[6].wlan[0].mac passedUpPk:vector(packetBytes) ETV
attr interpolationmode none
attr source packetSentToUpper
attr title "packets passed to higher layer, vector(packetBytes)"
vector 98 Scenario.normal_car[1].wlan[0].mac rcvdPkFromLl:vector(packetBytes) ETV
attr interpolationmode none
attr source packetReceivedFromLower
attr title "packets received from lower layer, vector(packetBytes)"
vector 99 Scenario.normal_car[1].wlan[0].mac passedUpPk:vector(packetBytes) ETV
attr interpolationmode none
attr source packetSentToUpper
attr title "packets passed to higher layer, vector(packetBytes)"
vector 100 Scenario.normal_car[1].ipv4.arp arpReplySent:vector(packetBytes) ETV
attr source arpReplySent
attr title "ARP replies sent, vector(packetBytes)"
vector 101 Scenario.normal_car[8].wlan[0].mac rcvdPkFromLl:vector(packetBytes) ETV
attr interpolationmode none
attr source packetReceivedFromLower
attr title "packets received from lower layer, vector(packetBytes)"
vector 102 Scenario.normal_car[8].wlan[0].mac passedUpPk:vector(packetBytes) ETV
attr interpolationmode none
attr source packetSentToUpper
attr title "packets passed to higher layer, vector(packetBytes)"
vector 103 Scenario.normal_car[2].wlan[0].mac packetDropNotAddressedToUs:vector(packetBytes) ETV
attr interpolationmode none
attr source packetDropReasonIsNotAddressedToUs(packetDropped)
attr title "packet drop: not addressed to us, vector(packetBytes)"
vector 104 Scenario.normal_car[6].wlan[0].mac packetDropNotAddressedToUs:vector(packetBytes) ETV
attr interpolationmode none
attr source packetDropReasonIsNotAddressedToUs(packetDropped)
attr title "packet drop: not addressed to us, vector(packetBytes)"
vector 105 Scenario.normal_car[1].udp packetReceived:vector(packetBytes) ETV
attr interpolationmode none
attr source packetReceived
attr title "packets received, vector(packetBytes)"
vector 106 Scenario.normal_car[1].udp passedUpPk:vector(count) ETV
attr interpolationmode none
attr source packetSentToUpper
attr title "packets passed up, vector(count)"
vector 107 Scenario.normal_car[8].wlan[0].mac packetDropNotAddressedToUs:vector(packetBytes) ETV
attr interpolationmode none
attr source packetDropReasonIsNotAddressedToUs(packetDropped)
attr title "packet drop: not addressed to us, vector(packetBytes)"
vector 108 Scenario.normal_car[2].udp packetSent:vector(packetBytes) ETV
attr interpolationmode none
attr source packetSent
attr title "packets sent, vector(packetBytes)"
vector 109 Scenario.normal_car[2].wlan[0].mac rcvdPkFromHl:vector(packetBytes) ETV
attr interpolationmode none
attr source packetReceivedFromUpper
attr title "packets received from higher layer, vector(packetBytes)"
vector 110 Scenario.normal_car[2].wlan[0].mac.queue packetPushed:vector(packetBytes) ETV
attr interpolationmode none
attr title "packet pushed, vector(packetBytes)"
vector 111 Scenario.normal_car[2].wlan[0].mac.queue queueLength:vector ETV
attr interpolationmode sample-hold
attr source "count(packetPushed) - count(packetPopped) - count(packetRemoved) - count(packetDropped)"
attr title "queue length, vector"
vector 112 Scenario.normal_car[2].wlan[0].mac.queue packetPopped:vector(packetBytes) ETV
attr interpolationmode none
attr title "packet popped, vector(packetBytes)"
vector 113 Scenario.normal_car[2].wlan[0].mac.queue queueingTime:vector ETV
attr interpolationmode none
attr source queueingTime(packetPopped)
attr title "queueing times, vector"
attr unit s
vector 114 Scenario.normal_car[2].wlan[0].mac sentDownPk:vector(packetBytes) ETV
attr interpolationmode none
attr source packetSentToLower
attr title "packets sent to lower layer, vector(packetBytes)"
vector 115 Scenario.normal_car[6].udp packetReceived:vector(packetBytes) ETV
attr interpolationmode none
attr source packetReceived
attr title "packets received, vector(packetBytes)"
vector 116 Scenario.normal_car[6].udp passedUpPk:vector(count) ETV
attr interpolationmode none
attr source packetSentToUpper
attr title "packets passed up, vector(count)"
vector 117 Scenario.normal_car[4].app[0] packetReceived:vector(packetBytes) ETV
attr interpolationmode none
attr source packetReceived
attr title "packets received, vector(packetBytes)"
vector 118 Scenario.normal_car[4].app[0] throughput:vector ETV
attr source throughput(packetReceived)
attr title "throughput, vector"
attr unit bps
vector 119 Scenario.normal_car[4].app[0] endToEndDelay:vector ETV
attr interpolationmode none
attr source dataAge(packetReceived)
attr title "end-to-end delay, vector"
attr unit s
vector 120 Scenario.normal_car[4].app[0] rcvdPkSeqNo:vector ETV
attr interpolationmode none
attr source appPkSeqNo(packetReceived)
attr title "received packet sequence number, vector"
vector 121 Scenario.normal_car[12].energyStorage residualEnergyCapacity:vector ETV
attr interpolationmode linear
attr source residualEnergyCapacityChanged
attr title "Residual energy capacity, vector"
vector 122 Scenario.normal_car[12].energyStorage powerConsumption:vector ETV
attr interpolationmode sample-hold
attr source powerConsumptionChanged
attr title "Power consumption, vector"
vector 123 Scenario.normal_car[12].wlan[0].radio radioMode:vector ETV
attr interpolationmode sample-hold
attr source radioModeChanged
attr title "Radio mode, vector"
vector 124 Scenario.normal_car[12].wlan[0].radio.energyConsumer powerConsumption:vector ETV
attr interpolationmode sample-hold
attr source powerConsumptionChanged
attr title "Power consumption, vector"
vector 125 Scenario.normal_car[12].wlan[0].radio receptionState:vector ETV
attr interpolationmode sample-hold
attr source receptionStateChanged
attr title "Radio reception state, vector"
vector 126 Scenario.normal_car[12].wlan[0].radio transmissionState:vector ETV
attr interpolationmode sample-hold
attr source transmissionStateChanged
attr title "Radio transmission state, vector"
vector 127 Scenario.normal_car[13].energyStorage residualEnergyCapacity:vector ETV
attr interpolationmode linear
attr source residualEnergyCapacityChanged
attr title "Residual energy capacity, vector"
vector 128 Scenario.normal_car[13].energyStorage powerConsumption:vector ETV
attr interpolationmode sample-hold
attr source powerConsumptionChanged
attr title "Power consumption, vector"
vector 129 Scenario.normal_car[13].wlan[0].radio radioMode:vector ETV
attr interpolationmode sample-hold
attr source radioModeChanged
attr title "Radio mode, vector"
vector 130 Scenario.normal_car[13].wlan[0].radio.energyConsumer powerConsumption:vector ETV
attr interpolationmode sample-hold
attr source powerConsumptionChanged
attr title "Power consumption, vector"
vector 131 Scenario.normal_car[13].wlan[0].radio receptionState:vector ETV
attr interpolationmode sample-hold
attr source receptionStateChanged
attr title "Radio reception state, vector"
vector 132 Scenario.normal_car[13].wlan[0].radio transmissionState:vector ETV
attr interpolationmode sample-hold
attr source transmissionStateChanged
attr title "Radio transmission state, vector"
vector 133 Scenario.normal_car[14].energyStorage residualEnergyCapacity:vector ETV
attr interpolationmode linear
attr source residualEnergyCapacityChanged
attr title "Residual energy capacity, vector"
vector 134 Scenario.normal_car[14].energyStorage powerConsumption:vector ETV
attr interpolationmode sample-hold
attr source powerConsumptionChanged
attr title "Power consumption, vector"
vector 135 Scenario.normal_car[14].wlan[0].radio radioMode:vector ETV
attr interpolationmode sample-hold
attr source radioModeChanged
attr title "Radio mode, vector"
vector 136 Scenario.normal_car[14].wlan[0].radio.energyConsumer powerConsumption:vector ETV
attr interpolationmode sample-hold
attr source powerConsumptionChanged
attr title "Power consumption, vector"
vector 137 Scenario.normal_car[14].wlan[0].radio receptionState:vector ETV
attr interpolationmode sample-hold
attr source receptionStateChanged
attr title "Radio reception state, vector"
vector 138 Scenario.normal_car[14].wlan[0].radio transmissionState:vector ETV
attr interpolationmode sample-hold
attr source transmissionStateChanged
attr title "Radio transmission state, vector"
vector 139 Scenario.normal_car[0].wlan[0].mac rcvdPkFromLl:vector(packetBytes) ETV
attr interpolationmode none
attr source packetReceivedFromLower
attr title "packets received from lower layer, vector(packetBytes)"
vector 140 Scenario.normal_car[0].wlan[0].mac packetDropNotAddressedToUs:vector(packetBytes) ETV
attr interpolationmode none
attr source packetDropReasonIsNotAddressedToUs(packetDropped)
attr title "packet drop: not addressed to us, vector(packetBytes)"
vector 141 Scenario.normal_car[3].wlan[0].mac rcvdPkFromLl:vector(packetBytes) ETV
attr interpolationmode none
attr source packetReceivedFromLower
attr title "packets received from lower layer, vector(packetBytes)"
vector 142 Scenario.normal_car[3].wlan[0].mac packetDropNotAddressedToUs:vector(packetBytes) ETV
attr interpolationmode none
attr source packetDropReasonIsNotAddressedToUs(packetDropped)
attr title "packet drop: not addressed to us, vector(packetBytes)"
vector 143 Scenario.normal_car[5].wlan[0].mac rcvdPkFromLl:vector(packetBytes) ETV
attr interpolationmode none
attr source packetReceivedFromLower
attr title "packets received from lower layer, vector(packetBytes)"
vector 144 Scenario.normal_car[5].wlan[0].mac packetDropNotAddressedToUs:vector(packetBytes) ETV
attr interpolationmode none
attr source packetDropReasonIsNotAddressedToUs(packetDropped)
attr title "packet drop: not addressed to us, vector(packetBytes)"
vector 145 Scenario.normal_car[7].wlan[0].mac rcvdPkFromLl:vector(packetBytes) ETV
attr interpolationmode none
attr source packetReceivedFromLower
attr title "packets received from lower layer, vector(packetBytes)"
vector 146 Scenario.normal_car[7].wlan[0].mac packetDropNotAddressedToUs:vector(packetBytes) ETV
attr interpolationmode none
attr source packetDropReasonIsNotAddressedToUs(packetDropped)
attr title "packet drop: not addressed to us, vector(packetBytes)"
vector 147 Scenario.normal_car[9].wlan[0].mac rcvdPkFromLl:vector(packetBytes) ETV
attr interpolationmode none
attr source packetReceivedFromLower
attr title "packets received from lower layer, vector(packetBytes)"
vector 148 Scenario.normal_car[9].wlan[0].mac packetDropNotAddressedToUs:vector(packetBytes) ETV
attr interpolationmode none
attr source packetDropReasonIsNotAddressedToUs(packetDropped)
attr title "packet drop: not addressed to us, vector(packetBytes)"
vector 149 Scenario.normal_car[11].wlan[0].mac rcvdPkFromLl:vector(packetBytes) ETV
attr interpolationmode none
attr source packetReceivedFromLower
attr title "packets received from lower layer, vector(packetBytes)"
vector 150 Scenario.normal_car[11].wlan[0].mac packetDropNotAddressedToUs:vector(packetBytes) ETV
attr interpolationmode none
attr source packetDropReasonIsNotAddressedToUs(packetDropped)
attr title "packet drop: not addressed to us, vector(packetBytes)"
vector 151 Scenario.normal_car[12].wlan[0].mac rcvdPkFromLl:vector(packetBytes) ETV
attr interpolationmode none
attr source packetReceivedFromLower
attr title "packets received from lower layer, vector(packetBytes)"
vector 152 Scenario.normal_car[12].wlan[0].mac packetDropNotAddressedToUs:vector(packetBytes) ETV
attr interpolationmode none
attr source packetDropReasonIsNotAddressedToUs(packetDropped)
attr title "packet drop: not addressed to us, vector(packetBytes)"
vector 153 Scenario.normal_car[0].app[0] throughput:vector ETV
attr source throughput(packetReceived)
attr title "throughput, vector"
attr unit bps
vector 154 Scenario.normal_car[1].app[0] throughput:vector ETV
attr source throughput(packetReceived)
attr title "throughput, vector"
attr unit bps
vector 155 Scenario.normal_car[2].app[0] throughput:vector ETV
attr source throughput(packetReceived)
attr title "throughput, vector"
attr unit bps
vector 156 Scenario.normal_car[3].app[0] throughput:vector ETV
attr source throughput(packetReceived)
attr title "throughput, vector"
attr unit bps
vector 157 Scenario.normal_car[5].app[0] throughput:vector ETV
attr source throughput(packetReceived)
attr title "throughput, vector"
attr unit bps
vector 158 Scenario.normal_car[6].app[0] throughput:vector ETV
attr source throughput(packetReceived)
attr title "throughput, vector"
attr unit bps
vector 159 Scenario.normal_car[7].app[0] throughput:vector ETV
attr source throughput(packetReceived)
attr title "throughput, vector"
attr unit bps
vector 160 Scenario.normal_car[8].app[0] throughput:vector ETV
attr source throughput(packetReceived)
attr title "throughput, vector"
attr unit bps
vector 161 Scenario.normal_car[9].app[0] throughput:vector ETV
attr source throughput(packetReceived)
attr title "throughput, vector"
attr unit bps
vector 162 Scenario.normal_car[10].app[0] throughput:vector ETV
attr source throughput(packetReceived)
attr title "throughput, vector"
attr unit bps
vector 163 Scenario.normal_car[11].app[0] throughput:vector ETV
attr source throughput(packetReceived)
attr title "throughput, vector"
attr unit bps
vector 164 Scenario.normal_car[12].app[0] throughput:vector ETV
attr source throughput(packetReceived)
attr title "throughput, vector"
attr unit bps
vector 165 Scenario.normal_car[13].app[0] throughput:vector ETV
attr source throughput(packetReceived)
attr title "throughput, vector"
attr unit bps
vector 166 Scenario.normal_car[14].app[0] throughput:vector ETV
attr source throughput(packetReceived)
attr title "throughput, vector"
attr unit bps
0	2	0.1	0
0	1000	27.000000325684	-0.10760000130274
0	1020	27.004348325684	-0.10765217730274
0	1067	28.000000240876	-0.1116347849635
0	1087	28.004348240876	-0.1116869609635
0	1134	29.00000015152	-0.11566956860608
0	1149	29.00434815152	-0.11572174460608
0	1202	30.00000005978	-0.11970435223912
0	1217	30.00434805978	-0.11975652823912
0	1275	31.000000035772	-0.12373913614309
0	1290	31.004348035772	-0.12379131214309
0	1345	32.000000127564	-0.12777392051026
0	1361	32.004348127564	-0.12782609651026
0	1418	33.000000218744	-0.13180870487498
0	1436	33.004348218744	-0.13186088087498
0	1488	34.000000306561	-0.13584348922624
0	1507	34.004348306561	-0.13589566522624
0	1561	35.000000391609	-0.13987827356644
0	1585	35.004348391609	-0.13993044956644
0	1632	36.000000467037	-0.14391305786815
1	2	0.1	0
1	2	0.1	0
1	2	0.1	0
1	2	0.1	0
1	2	0.1	0.002
1	2	0.1	0.004
1	1000	27.000000325684	0.002
1	1000	27.000000325684	0.012
1	1020	27.004348325684	0.004
1	1067	28.000000240876	0.012
1	1087	28.004348240876	0.004
1	1134	29.00000015152	0.012
1	1149	29.00434815152	0.004
1	1202	30.00000005978	0.012
1	1217	30.00434805978	0.004
1	1275	31.000000035772	0.012
1	1290	31.004348035772	0.004
1	1345	32.000000127564	0.012
1	1361	32.004348127564	0.004
1	1418	33.000000218744	0.012
1	1436	33.004348218744	0.004
1	1488	34.000000306561	0.012
1	1507	34.004348306561	0.004
1	1561	35.000000391609	0.012
1	1585	35.004348391609	0.004
1	1632	36.000000467037	0.004
2	2	0.1	0
2	2	0.1	0
2	2	0.1	4
3	2	0.1	0
3	2	0.1	0
3	2	0.1	0
3	2	0.1	0.002
3	2	0.1	0.004
3	1000	27.000000325684	0.002
3	1000	27.000000325684	0.012
3	1020	27.004348325684	0.004
3	1067	28.000000240876	0.012
3	1087	28.004348240876	0.004
3	1134	29.00000015152	0.012
3	1149	29.00434815152	0.004
3	1202	30.00000005978	0.012
3	1217	30.00434805978	0.004
3	1275	31.000000035772	0.012
3	1290	31.004348035772	0.004
3	1345	32.000000127564	0.012
3	1361	32.004348127564	0.004
3	1418	33.000000218744	0.012
3	1436	33.004348218744	0.004
3	1488	34.000000306561	0.012
3	1507	34.004348306561	0.004
3	1561	35.000000391609	0.012
3	1585	35.004348391609	0.004
3	1632	36.000000467037	0.004
4	2	0.1	1
4	1000	27.000000325684	3
4	1020	27.004348325684	1
4	1067	28.000000240876	3
4	1087	28.004348240876	1
4	1134	29.00000015152	3
4	1149	29.00434815152	1
4	1202	30.00000005978	3
4	1217	30.00434805978	1
4	1275	31.000000035772	3
4	1290	31.004348035772	1
4	1345	32.000000127564	3
4	1361	32.004348127564	1
4	1418	33.000000218744	3
4	1436	33.004348218744	1
4	1488	34.000000306561	3
4	1507	34.004348306561	1
4	1561	35.000000391609	3
4	1585	35.004348391609	1
5	2	0.1	1
6	2	0.1	0
6	388	20.002964223082	-0.079611856892328
6	400	20.003312223082	-0.079647352892328
6	418	20.003312884132	-0.079647355536528
6	442	20.003564884132	-0.079650379536528
6	468	20.003816884132	-0.079676083536528
6	479	20.003817545182	-0.079676086180728
6	501	20.004149545182	-0.079680070180728
6	533	20.006888486371	-0.079959442182006
6	545	20.007236486371	-0.079997722182006
6	564	20.008497545182	-0.080126350180728
6	613	21	-0.08409236
6	625	21.004348	-0.084535856
6	669	22	-0.088518464
6	681	22.004348	-0.08896196
6	735	23	-0.092944568
6	749	23.004348	-0.093388064
6	799	24	-0.097370672
6	813	24.004348	-0.097814168
6	861	25	-0.101796776
6	875	25.004348	-0.102240272
6	928	26	-0.10622288
6	943	26.004348	-0.106666376
6	997	27	-0.110648984
6	1012	27.004348	-0.11109248
6	1064	28	-0.115075088
6	1079	28.004348	-0.115518584
6	1133	29	-0.119501192
6	1148	29.004348	-0.119944688
6	1201	30	-0.123927296
6	1216	30.004348	-0.124370792
6	1274	31	-0.1283534
6	1289	31.004348	-0.128796896
6	1343	32	-0.132779504
6	1358	32.004348	-0.133223
6	1414	33	-0.137205608
6	1429	33.004348	-0.137649104
6	1483	34	-0.141631712
6	1498	34.004348	-0.142075208
6	1554	35	-0.146057816
6	1569	35.004348	-0.146501312
6	1624	36	-0.15048392
6	1639	36.004348	-0.150927416
6	1695	37	-0.154910024
6	1710	37.004348	-0.15535352
6	1764	38	-0.159336128
6	1779	38.004348	-0.159779624
6	1835	39	-0.163762232
6	1850	39.004348	-0.164205728
6	1904	40	-0.168188336
6	1919	40.004348	-0.168631832
6	1974	41	-0.17261444
6	1989	41.004348	-0.173057936
6	2042	42	-0.177040544
6	2057	42.004348	-0.17748404
6	2111	43	-0.181466648
6	2126	43.004348	-0.181910144
6	2178	44	-0.185892752
6	2193	44.004348	-0.186336248
6	2246	45	-0.190318856
6	2261	45.004348	-0.190762352
6	2312	46	-0.19474496
6	2327	46.004348	-0.195188456
6	2379	47	-0.199171064
6	2394	47.004348	-0.19961456
6	2444	48	-0.203597168
6	2459	48.004348	-0.204040664
6	2510	49	-0.208023272
6	2525	49.004348	-0.208466768
6	2575	50	-0.212449376
6	2590	50.004348	-0.212892872
6	2641	51	-0.21687548
6	2656	51.004348	-0.217318976
6	2706	52	-0.221301584
6	2721	52.004348	-0.22174508
6	2772	53	-0.225727688
6	2787	53.004348	-0.226171184
6	2837	54	-0.230153792
6	2852	54.004348	-0.230597288
6	2903	55	-0.234579896
6	2918	55.004348	-0.235023392
6	2968	56	-0.239006
6	2983	56.004348	-0.239449496
6	3034	57	-0.243432104
6	3049	57.004348	-0.2438756
6	3099	58	-0.247858208
6	3114	58.004348	-0.248301704
6	3165	59	-0.252284312
6	3180	59.004348	-0.252727808
6	3230	60	-0.256710416
6	3245	60.004348	-0.257153912
7	2	0.1	0
7	2	0.1	0
7	2	0.1	0
7	2	0.1	0
7	2	0.1	0.002
7	2	0.1	0.004
7	388	20.002964223082	0.002
7	388	20.002964223082	0.102
7	400	20.003312223082	0.004
7	400	20.003312223082	0.004
7	418	20.003312884132	0.002
7	418	20.003312884132	0.012
7	442	20.003564884132	0.004
7	446	20.003564884132	0.002
7	446	20.003564884132	0.002
7	446	20.003564884132	0.102
7	468	20.003816884132	0.004
7	468	20.003816884132	0.004
7	479	20.003817545182	0.002
7	479	20.003817545182	0.012
7	501	20.004149545182	0.004
7	507	20.004149545182	0.002
7	507	20.004149545182	0.002
7	507	20.004149545182	0.102
7	533	20.006888486371	0.1
7	533	20.006888486371	0.11
7	545	20.007236486371	0.102
7	564	20.008497545182	0.004
7	564	20.008497545182	0.004
7	564	20.008497545182	0.004
7	613	21	0.002
7	613	21	0.102
7	625	21.004348	0.004
7	625	21.004348	0.004
7	669	22	0.002
7	669	22	0.102
7	681	22.004348	0.004
7	681	22.004348	0.004
7	735	23	0.002
7	735	23	0.102
7	749	23.004348	0.004
7	749	23.004348	0.004
7	799	24	0.002
7	799	24	0.102
7	813	24.004348	0.004
7	813	24.004348	0.004
7	861	25	0.002
7	861	25	0.102
7	875	25.004348	0.004
7	875	25.004348	0.004
7	928	26	0.002
7	928	26	0.102
7	943	26.004348	0.004
7	943	26.004348	0.004
7	997	27	0.002
7	997	27	0.102
7	1012	27.004348	0.004
7	1012	27.004348	0.004
7	1064	28	0.002
7	1064	28	0.102
7	1079	28.004348	0.004
7	1079	28.004348	0.004
7	1133	29	0.002
7	1133	29	0.102
7	1148	29.004348	0.004
7	1148	29.004348	0.004
7	1201	30	0.002
7	1201	30	0.102
7	1216	30.004348	0.004
7	1216	30.004348	0.004
7	1274	31	0.002
7	1274	31	0.102
7	1289	31.004348	0.004
7	1289	31.004348	0.004
7	1343	32	0.002
7	1343	32	0.102
7	1358	32.004348	0.004
7	1358	32.004348	0.004
7	1414	33	0.002
7	1414	33	0.102
7	1429	33.004348	0.004
7	1429	33.004348	0.004
7	1483	34	0.002
7	1483	34	0.102
7	1498	34.004348	0.004
7	1498	34.004348	0.004
7	1554	35	0.002
7	1554	35	0.102
7	1569	35.004348	0.004
7	1569	35.004348	0.004
7	1624	36	0.002
7	1624	36	0.102
7	1639	36.004348	0.004
7	1639	36.004348	0.004
7	1695	37	0.002
7	1695	37	0.102
7	1710	37.004348	0.004
7	1710	37.004348	0.004
7	1764	38	0.002
7	1764	38	0.102
7	1779	38.004348	0.004
7	1779	38.004348	0.004
7	1835	39	0.002
7	1835	39	0.102
7	1850	39.004348	0.004
7	1850	39.004348	0.004
7	1904	40	0.002
7	1904	40	0.102
7	1919	40.004348	0.004
7	1919	40.004348	0.004
7	1974	41	0.002
7	1974	41	0.102
7	1989	41.004348	0.004
7	1989	41.004348	0.004
7	2042	42	0.002
7	2042	42	0.102
7	2057	42.004348	0.004
7	2057	42.004348	0.004
7	2111	43	0.002
7	2111	43	0.102
7	2126	43.004348	0.004
7	2126	43.004348	0.004
7	2178	44	0.002
7	2178	44	0.102
7	2193	44.004348	0.004
7	2193	44.004348	0.004
7	2246	45	0.002
7	2246	45	0.102
7	2261	45.004348	0.004
7	2261	45.004348	0.004
7	2312	46	0.002
7	2312	46	0.102
7	2327	46.004348	0.004
7	2327	46.004348	0.004
7	2379	47	0.002
7	2379	47	0.102
7	2394	47.004348	0.004
7	2394	47.004348	0.004
7	2444	48	0.002
7	2444	48	0.102
7	2459	48.004348	0.004
7	2459	48.004348	0.004
7	2510	49	0.002
7	2510	49	0.102
7	2525	49.004348	0.004
7	2525	49.004348	0.004
7	2575	50	0.002
7	2575	50	0.102
7	2590	50.004348	0.004
7	2590	50.004348	0.004
7	2641	51	0.002
7	2641	51	0.102
7	2656	51.004348	0.004
7	2656	51.004348	0.004
7	2706	52	0.002
7	2706	52	0.102
7	2721	52.004348	0.004
7	2721	52.004348	0.004
7	2772	53	0.002
7	2772	53	0.102
7	2787	53.004348	0.004
7	2787	53.004348	0.004
7	2837	54	0.002
7	2837	54	0.102
7	2852	54.004348	0.004
7	2852	54.004348	0.004
7	2903	55	0.002
7	2903	55	0.102
7	2918	55.004348	0.004
7	2918	55.004348	0.004
7	2968	56	0.002
7	2968	56	0.102
7	2983	56.004348	0.004
7	2983	56.004348	0.004
7	3034	57	0.002
7	3034	57	0.102
7	3049	57.004348	0.004
7	3049	57.004348	0.004
7	3099	58	0.002
7	3099	58	0.102
7	3114	58.004348	0.004
7	3114	58.004348	0.004
7	3165	59	0.002
7	3165	59	0.102
7	3180	59.004348	0.004
7	3180	59.004348	0.004
7	3230	60	0.002
7	3230	60	0.102
7	3245	60.004348	0.004
7	3245	60.004348	0.004
8	2	0.1	0
8	2	0.1	0
8	2	0.1	4
9	2	0.1	0
9	2	0.1	0
9	2	0.1	0
9	2	0.1	0.002
9	2	0.1	0.004
9	388	20.002964223082	0.002
9	388	20.002964223082	0.102
9	400	20.003312223082	0.004
9	400	20.003312223082	0.004
9	418	20.003312884132	0.002
9	418	20.003312884132	0.012
9	442	20.003564884132	0.004
9	446	20.003564884132	0.002
9	446	20.003564884132	0.002
9	446	20.003564884132	0.102
9	468	20.003816884132	0.004
9	468	20.003816884132	0.004
9	479	20.003817545182	0.002
9	479	20.003817545182	0.012
9	501	20.004149545182	0.004
9	507	20.004149545182	0.002
9	507	20.004149545182	0.002
9	507	20.004149545182	0.102
9	533	20.006888486371	0.1
9	533	20.006888486371	0.11
9	545	20.007236486371	0.102
9	564	20.008497545182	0.004
9	564	20.008497545182	0.004
9	564	20.008497545182	0.004
9	613	21	0.002
9	613	21	0.102
9	625	21.004348	0.004
9	625	21.004348	0.004
9	669	22	0.002
9	669	22	0.102
9	681	22.004348	0.004
9	681	22.004348	0.004
9	735	23	0.002
9	735	23	0.102
9	749	23.004348	0.004
9	749	23.004348	0.004
9	799	24	0.002
9	799	24	0.102
9	813	24.004348	0.004
9	813	24.004348	0.004
9	861	25	0.002
9	861	25	0.102
9	875	25.004348	0.004
9	875	25.004348	0.004
9	928	26	0.002
9	928	26	0.102
9	943	26.004348	0.004
9	943	26.004348	0.004
9	997	27	0.002
9	997	27	0.102
9	1012	27.004348	0.004
9	1012	27.004348	0.004
9	1064	28	0.002
9	1064	28	0.102
9	1079	28.004348	0.004
9	1079	28.004348	0.004
9	1133	29	0.002
9	1133	29	0.102
9	1148	29.004348	0.004
9	1148	29.004348	0.004
9	1201	30	0.002
9	1201	30	0.102
9	1216	30.004348	0.004
9	1216	30.004348	0.004
9	1274	31	0.002
9	1274	31	0.102
9	1289	31.004348	0.004
9	1289	31.004348	0.004
9	1343	32	0.002
9	1343	32	0.102
9	1358	32.004348	0.004
9	1358	32.004348	0.004
9	1414	33	0.002
9	1414	33	0.102
9	1429	33.004348	0.004
9	1429	33.004348	0.004
9	1483	34	0.002
9	1483	34	0.102
9	1498	34.004348	0.004
9	1498	34.004348	0.004
9	1554	35	0.002
9	1554	35	0.102
9	1569	35.004348	0.004
9	1569	35.004348	0.004
9	1624	36	0.002
9	1624	36	0.102
9	1639	36.004348	0.004
9	1639	36.004348	0.004
9	1695	37	0.002
9	1695	37	0.102
9	1710	37.004348	0.004
9	1710	37.004348	0.004
9	1764	38	0.002
9	1764	38	0.102
9	1779	38.004348	0.004
9	1779	38.004348	0.004
9	1835	39	0.002
9	1835	39	0.102
9	1850	39.004348	0.004
9	1850	39.004348	0.004
9	1904	40	0.002
9	1904	40	0.102
9	1919	40.004348	0.004
9	1919	40.004348	0.004
9	1974	41	0.002
9	1974	41	0.102
9	1989	41.004348	0.004
9	1989	41.004348	0.004
9	2042	42	0.002
9	2042	42	0.102
9	2057	42.004348	0.004
9	2057	42.004348	0.004
9	2111	43	0.002
9	2111	43	0.102
9	2126	43.004348	0.004
9	2126	43.004348	0.004
9	2178	44	0.002
9	2178	44	0.102
9	2193	44.004348	0.004
9	2193	44.004348	0.004
9	2246	45	0.002
9	2246	45	0.102
9	2261	45.004348	0.004
9	2261	45.004348	0.004
9	2312	46	0.002
9	2312	46	0.102
9	2327	46.004348	0.004
9	2327	46.004348	0.004
9	2379	47	0.002
9	2379	47	0.102
9	2394	47.004348	0.004
9	2394	47.004348	0.004
9	2444	48	0.002
9	2444	48	0.102
9	2459	48.004348	0.004
9	2459	48.004348	0.004
9	2510	49	0.002
9	2510	49	0.102
9	2525	49.004348	0.004
9	2525	49.004348	0.004
9	2575	50	0.002
9	2575	50	0.102
9	2590	50.004348	0.004
9	2590	50.004348	0.004
9	2641	51	0.002
9	2641	51	0.102
9	2656	51.004348	0.004
9	2656	51.004348	0.004
9	2706	52	0.002
9	2706	52	0.102
9	2721	52.004348	0.004
9	2721	52.004348	0.004
9	2772	53	0.002
9	2772	53	0.102
9	2787	53.004348	0.004
9	2787	53.004348	0.004
9	2837	54	0.002
9	2837	54	0.102
9	2852	54.004348	0.004
9	2852	54.004348	0.004
9	2903	55	0.002
9	2903	55	0.102
9	2918	55.004348	0.004
9	2918	55.004348	0.004
9	2968	56	0.002
9	2968	56	0.102
9	2983	56.004348	0.004
9	2983	56.004348	0.004
9	3034	57	0.002
9	3034	57	0.102
9	3049	57.004348	0.004
9	3049	57.004348	0.004
9	3099	58	0.002
9	3099	58	0.102
9	3114	58.004348	0.004
9	3114	58.004348	0.004
9	3165	59	0.002
9	3165	59	0.102
9	3180	59.004348	0.004
9	3180	59.004348	0.004
9	3230	60	0.002
9	3230	60	0.102
9	3245	60.004348	0.004
9	3245	60.004348	0.004
10	2	0.1	1
10	418	20.003312884132	3
10	442	20.003564884132	1
10	479	20.003817545182	3
10	501	20.004149545182	1
10	533	20.006888486371	3
10	545	20.007236486371	1
11	2	0.1	1
11	388	20.002964223082	2
11	400	20.003312223082	1
11	446	20.003564884132	2
11	468	20.003816884132	1
11	507	20.004149545182	2
11	564	20.008497545182	1
11	613	21	2
11	625	21.004348	1
11	669	22	2
11	681	22.004348	1
11	735	23	2
11	749	23.004348	1
11	799	24	2
11	813	24.004348	1
11	861	25	2
11	875	25.004348	1
11	928	26	2
11	943	26.004348	1
11	997	27	2
11	1012	27.004348	1
11	1064	28	2
11	1079	28.004348	1
11	1133	29	2
11	1148	29.004348	1
11	1201	30	2
11	1216	30.004348	1
11	1274	31	2
11	1289	31.004348	1
11	1343	32	2
11	1358	32.004348	1
11	1414	33	2
11	1429	33.004348	1
11	1483	34	2
11	1498	34.004348	1
11	1554	35	2
11	1569	35.004348	1
11	1624	36	2
11	1639	36.004348	1
11	1695	37	2
11	1710	37.004348	1
11	1764	38	2
11	1779	38.004348	1
11	1835	39	2
11	1850	39.004348	1
11	1904	40	2
11	1919	40.004348	1
11	1974	41	2
11	1989	41.004348	1
11	2042	42	2
11	2057	42.004348	1
11	2111	43	2
11	2126	43.004348	1
11	2178	44	2
11	2193	44.004348	1
11	2246	45	2
11	2261	45.004348	1
11	2312	46	2
11	2327	46.004348	1
11	2379	47	2
11	2394	47.004348	1
11	2444	48	2
11	2459	48.004348	1
11	2510	49	2
11	2525	49.004348	1
11	2575	50	2
11	2590	50.004348	1
11	2641	51	2
11	2656	51.004348	1
11	2706	52	2
11	2721	52.004348	1
11	2772	53	2
11	2787	53.004348	1
11	2837	54	2
11	2852	54.004348	1
11	2903	55	2
11	2918	55.004348	1
11	2968	56	2
11	2983	56.004348	1
11	3034	57	2
11	3049	57.004348	1
11	3099	58	2
11	3114	58.004348	1
11	3165	59	2
11	3180	59.004348	1
11	3230	60	2
11	3245	60.004348	1
12	52	3.8	0
12	389	20.002964381314	-0.064811857525256
12	401	20.003312381314	-0.064816033525256
12	417	20.003312725902	-0.064816034903608
12	439	20.003564725902	-0.064819058903608
12	451	20.003565042364	-0.064819060169456
12	469	20.003817042364	-0.064822084169456
12	478	20.003817386952	-0.064822085547808
12	499	20.004149386952	-0.064826069547808
12	511	20.004149703414	-0.064826070813656
12	532	20.006888328139	-0.064858934310356
12	544	20.007236328139	-0.064897214310356
12	565	20.008497703414	-0.064912350813656
12	614	21.000000137714	-0.068878360550856
12	626	21.004348137714	-0.068930536550856
12	670	22.000000113026	-0.072913144452104
12	682	22.004348113026	-0.072965320452104
12	736	23.000000104605	-0.07694792841842
12	750	23.004348104605	-0.07700010441842
12	800	24.000000097779	-0.080982712391116
12	814	24.004348097779	-0.081034888391116
12	862	25.000000102473	-0.085017496409892
12	876	25.004348102473	-0.085069672409892
12	929	26.000000116611	-0.089052280466444
12	944	26.004348116611	-0.089104456466444
12	998	27.000000120487	-0.093087064481948
12	1013	27.004348120487	-0.093139240481948
12	1065	28.000000138765	-0.09712184855506
12	1080	28.004348138765	-0.09717402455506
12	1135	29.000000155698	-0.10115663262279
12	1151	29.004348155698	-0.10120880862279
12	1203	30.000000164776	-0.1051914166591
12	1219	30.004348164776	-0.1052435926591
12	1277	31.000000171153	-0.10922620068461
12	1294	31.004348171153	-0.10927837668461
12	1346	32.000000174888	-0.11326098469955
12	1363	32.004348174888	-0.11331316069955
12	1417	33.000000176545	-0.11729576870618
12	1434	33.004348176545	-0.11734794470618
12	1486	34.000000176558	-0.12133055270623
12	1503	34.004348176558	-0.12138272870623
12	1557	35.000000175095	-0.12536533670038
12	1574	35.004348175095	-0.12541751270038
12	1627	36.000000173029	-0.12940012069212
12	1644	36.004348173029	-0.12945229669212
12	1698	37.000000172591	-0.13343490469036
12	1715	37.004348172591	-0.13348708069036
12	1768	38.000000172901	-0.1374696886916
12	1786	38.004348172901	-0.1375218646916
12	1838	39.000000174899	-0.1415044726996
12	1855	39.004348174899	-0.1415566486996
12	1907	40.000000176563	-0.14553925670625
12	1924	40.004348176563	-0.14559143270625
12	1977	41.000000177094	-0.14957404070838
12	1994	41.004348177094	-0.14962621670838
12	2044	42.000000177126	-0.1536088247085
12	2060	42.004348177126	-0.1536610007085
12	2113	43.000000177193	-0.15764360870877
12	2129	43.004348177193	-0.15769578470877
12	2179	44.000000177166	-0.16167839270866
12	2194	44.004348177166	-0.16173056870866
12	2247	45.000000177148	-0.16571317670859
12	2262	45.004348177148	-0.16576535270859
12	2313	46.000000176927	-0.16974796070771
12	2328	46.004348176927	-0.16980013670771
12	2380	47.000000176618	-0.17378274470647
12	2395	47.004348176618	-0.17383492070647
12	2445	48.000000174047	-0.17781752869619
12	2460	48.004348174047	-0.17786970469619
12	2511	49.000000171004	-0.18185231268402
12	2526	49.004348171004	-0.18190448868402
12	2576	50.000000171021	-0.18588709668408
12	2591	50.004348171021	-0.18593927268408
12	2642	51.000000174956	-0.18992188069982
12	2657	51.004348174956	-0.18997405669982
12	2707	52.000000176934	-0.19395666470774
12	2722	52.004348176934	-0.19400884070774
12	2773	53.000000177147	-0.19799144870859
12	2788	53.004348177147	-0.19804362470859
12	2838	54.00000017714	-0.20202623270856
12	2853	54.00434817714	-0.20207840870856
12	2904	55.000000177038	-0.20606101670815
12	2919	55.004348177038	-0.20611319270815
12	2969	56.000000177002	-0.21009580070801
12	2984	56.004348177002	-0.21014797670801
12	3035	57.00000017626	-0.21413058470504
12	3050	57.00434817626	-0.21418276070504
12	3100	58.000000171973	-0.21816536868789
12	3115	58.004348171973	-0.21821754468789
12	3166	59.00000016513	-0.22220015266052
12	3181	59.00434816513	-0.22225232866052
12	3231	60.000000166295	-0.22623493666518
12	3246	60.004348166295	-0.22628711266518
13	52	3.8	0
13	52	3.8	0
13	52	3.8	0
13	52	3.8	0
13	52	3.8	0.002
13	52	3.8	0.004
13	389	20.002964381314	0.002
13	389	20.002964381314	0.012
13	401	20.003312381314	0.004
13	417	20.003312725902	0.012
13	439	20.003564725902	0.004
13	451	20.003565042364	0.012
13	469	20.003817042364	0.004
13	478	20.003817386952	0.012
13	499	20.004149386952	0.004
13	511	20.004149703414	0.012
13	532	20.006888328139	0.01
13	532	20.006888328139	0.11
13	544	20.007236328139	0.012
13	544	20.007236328139	0.012
13	565	20.008497703414	0.004
13	614	21.000000137714	0.012
13	626	21.004348137714	0.004
13	670	22.000000113026	0.012
13	682	22.004348113026	0.004
13	736	23.000000104605	0.012
13	750	23.004348104605	0.004
13	800	24.000000097779	0.012
13	814	24.004348097779	0.004
13	862	25.000000102473	0.012
13	876	25.004348102473	0.004
13	929	26.000000116611	0.012
13	944	26.004348116611	0.004
13	998	27.000000120487	0.012
13	1013	27.004348120487	0.004
13	1065	28.000000138765	0.012
13	1080	28.004348138765	0.004
13	1135	29.000000155698	0.012
13	1151	29.004348155698	0.004
13	1203	30.000000164776	0.012
13	1219	30.004348164776	0.004
13	1277	31.000000171153	0.012
13	1294	31.004348171153	0.004
13	1346	32.000000174888	0.012
13	1363	32.004348174888	0.004
13	1417	33.000000176545	0.012
13	1434	33.004348176545	0.004
13	1486	34.000000176558	0.012
13	1503	34.004348176558	0.004
13	1557	35.000000175095	0.012
13	1574	35.004348175095	0.004
13	1627	36.000000173029	0.012
13	1644	36.004348173029	0.004
13	1698	37.000000172591	0.012
13	1715	37.004348172591	0.004
13	1768	38.000000172901	0.012
13	1786	38.004348172901	0.004
13	1838	39.000000174899	0.012
13	1855	39.004348174899	0.004
13	1907	40.000000176563	0.012
13	1924	40.004348176563	0.004
13	1977	41.000000177094	0.012
13	1994	41.004348177094	0.004
13	2044	42.000000177126	0.012
13	2060	42.004348177126	0.004
13	2113	43.000000177193	0.012
13	2129	43.004348177193	0.004
13	2179	44.000000177166	0.012
13	2194	44.004348177166	0.004
13	2247	45.000000177148	0.012
13	2262	45.004348177148	0.004
13	2313	46.000000176927	0.012
13	2328	46.004348176927	0.004
13	2380	47.000000176618	0.012
13	2395	47.004348176618	0.004
13	2445	48.000000174047	0.012
13	2460	48.004348174047	0.004
13	2511	49.000000171004	0.012
13	2526	49.004348171004	0.004
13	2576	50.000000171021	0.012
13	2591	50.004348171021	0.004
13	2642	51.000000174956	0.012
13	2657	51.004348174956	0.004
13	2707	52.000000176934	0.012
13	2722	52.004348176934	0.004
13	2773	53.000000177147	0.012
13	2788	53.004348177147	0.004
13	2838	54.00000017714	0.012
13	2853	54.00434817714	0.004
13	2904	55.000000177038	0.012
13	2919	55.004348177038	0.004
13	2969	56.000000177002	0.012
13	2984	56.004348177002	0.004
13	3035	57.00000017626	0.012
13	3050	57.00434817626	0.004
13	3100	58.000000171973	0.012
13	3115	58.004348171973	0.004
13	3166	59.00000016513	0.012
13	3181	59.00434816513	0.004
13	3231	60.000000166295	0.012
13	3246	60.004348166295	0.004
14	52	3.8	0
14	52	3.8	0
14	52	3.8	4
15	52	3.8	0
15	52	3.8	0
15	52	3.8	0
15	52	3.8	0.002
15	52	3.8	0.004
15	389	20.002964381314	0.002
15	389	20.002964381314	0.012
15	401	20.003312381314	0.004
15	417	20.003312725902	0.012
15	439	20.003564725902	0.004
15	451	20.003565042364	0.012
15	469	20.003817042364	0.004
15	478	20.003817386952	0.012
15	499	20.004149386952	0.004
15	511	20.004149703414	0.012
15	532	20.006888328139	0.01
15	532	20.006888328139	0.11
15	544	20.007236328139	0.012
15	544	20.007236328139	0.012
15	565	20.008497703414	0.004
15	614	21.000000137714	0.012
15	626	21.004348137714	0.004
15	670	22.000000113026	0.012
15	682	22.004348113026	0.004
15	736	23.000000104605	0.012
15	750	23.004348104605	0.004
15	800	24.000000097779	0.012
15	814	24.004348097779	0.004
15	862	25.000000102473	0.012
15	876	25.004348102473	0.004
15	929	26.000000116611	0.012
15	944	26.004348116611	0.004
15	998	27.000000120487	0.012
15	1013	27.004348120487	0.004
15	1065	28.000000138765	0.012
15	1080	28.004348138765	0.004
15	1135	29.000000155698	0.012
15	1151	29.004348155698	0.004
15	1203	30.000000164776	0.012
15	1219	30.004348164776	0.004
15	1277	31.000000171153	0.012
15	1294	31.004348171153	0.004
15	1346	32.000000174888	0.012
15	1363	32.004348174888	0.004
15	1417	33.000000176545	0.012
15	1434	33.004348176545	0.004
15	1486	34.000000176558	0.012
15	1503	34.004348176558	0.004
15	1557	35.000000175095	0.012
15	1574	35.004348175095	0.004
15	1627	36.000000173029	0.012
15	1644	36.004348173029	0.004
15	1698	37.000000172591	0.012
15	1715	37.004348172591	0.004
15	1768	38.000000172901	0.012
15	1786	38.004348172901	0.004
15	1838	39.000000174899	0.012
15	1855	39.004348174899	0.004
15	1907	40.000000176563	0.012
15	1924	40.004348176563	0.004
15	1977	41.000000177094	0.012
15	1994	41.004348177094	0.004
15	2044	42.000000177126	0.012
15	2060	42.004348177126	0.004
15	2113	43.000000177193	0.012
15	2129	43.004348177193	0.004
15	2179	44.000000177166	0.012
15	2194	44.004348177166	0.004
15	2247	45.000000177148	0.012
15	2262	45.004348177148	0.004
15	2313	46.000000176927	0.012
15	2328	46.004348176927	0.004
15	2380	47.000000176618	0.012
15	2395	47.004348176618	0.004
15	2445	48.000000174047	0.012
15	2460	48.004348174047	0.004
15	2511	49.000000171004	0.012
15	2526	49.004348171004	0.004
15	2576	50.000000171021	0.012
15	2591	50.004348171021	0.004
15	2642	51.000000174956	0.012
15	2657	51.004348174956	0.004
15	2707	52.000000176934	0.012
15	2722	52.004348176934	0.004
15	2773	53.000000177147	0.012
15	2788	53.004348177147	0.004
15	2838	54.00000017714	0.012
15	2853	54.00434817714	0.004
15	2904	55.000000177038	0.012
15	2919	55.004348177038	0.004
15	2969	56.000000177002	0.012
15	2984	56.004348177002	0.004
15	3035	57.00000017626	0.012
15	3050	57.00434817626	0.004
15	3100	58.000000171973	0.012
15	3115	58.004348171973	0.004
15	3166	59.00000016513	0.012
15	3181	59.00434816513	0.004
15	3231	60.000000166295	0.012
15	3246	60.004348166295	0.004
16	52	3.8	1
16	389	20.002964381314	3
16	401	20.003312381314	1
16	417	20.003312725902	3
16	439	20.003564725902	1
16	451	20.003565042364	3
16	469	20.003817042364	1
16	478	20.003817386952	3
16	499	20.004149386952	1
16	511	20.004149703414	3
16	565	20.008497703414	1
16	614	21.000000137714	3
16	626	21.004348137714	1
16	670	22.000000113026	3
16	682	22.004348113026	1
16	736	23.000000104605	3
16	750	23.004348104605	1
16	800	24.000000097779	3
16	814	24.004348097779	1
16	862	25.000000102473	3
16	876	25.004348102473	1
16	929	26.000000116611	3
16	944	26.004348116611	1
16	998	27.000000120487	3
16	1013	27.004348120487	1
16	1065	28.000000138765	3
16	1080	28.004348138765	1
16	1135	29.000000155698	3
16	1151	29.004348155698	1
16	1203	30.000000164776	3
16	1219	30.004348164776	1
16	1277	31.000000171153	3
16	1294	31.004348171153	1
16	1346	32.000000174888	3
16	1363	32.004348174888	1
16	1417	33.000000176545	3
16	1434	33.004348176545	1
16	1486	34.000000176558	3
16	1503	34.004348176558	1
16	1557	35.000000175095	3
16	1574	35.004348175095	1
16	1627	36.000000173029	3
16	1644	36.004348173029	1
16	1698	37.000000172591	3
16	1715	37.004348172591	1
16	1768	38.000000172901	3
16	1786	38.004348172901	1
16	1838	39.000000174899	3
16	1855	39.004348174899	1
16	1907	40.000000176563	3
16	1924	40.004348176563	1
16	1977	41.000000177094	3
16	1994	41.004348177094	1
16	2044	42.000000177126	3
16	2060	42.004348177126	1
16	2113	43.000000177193	3
16	2129	43.004348177193	1
16	2179	44.000000177166	3
16	2194	44.004348177166	1
16	2247	45.000000177148	3
16	2262	45.004348177148	1
16	2313	46.000000176927	3
16	2328	46.004348176927	1
16	2380	47.000000176618	3
16	2395	47.004348176618	1
16	2445	48.000000174047	3
16	2460	48.004348174047	1
16	2511	49.000000171004	3
16	2526	49.004348171004	1
16	2576	50.000000171021	3
16	2591	50.004348171021	1
16	2642	51.000000174956	3
16	2657	51.004348174956	1
16	2707	52.000000176934	3
16	2722	52.004348176934	1
16	2773	53.000000177147	3
16	2788	53.004348177147	1
16	2838	54.00000017714	3
16	2853	54.00434817714	1
16	2904	55.000000177038	3
16	2919	55.004348177038	1
16	2969	56.000000177002	3
16	2984	56.004348177002	1
16	3035	57.00000017626	3
16	3050	57.00434817626	1
16	3100	58.000000171973	3
16	3115	58.004348171973	1
16	3166	59.00000016513	3
16	3181	59.00434816513	1
16	3231	60.000000166295	3
16	3246	60.004348166295	1
17	52	3.8	1
17	532	20.006888328139	2
17	544	20.007236328139	1
18	58	3.9	0
18	1137	29.000000323461	-0.10040000129384
18	1158	29.004348323461	-0.10045217729384
18	1204	30.000000234983	-0.10443478493993
18	1221	30.004348234983	-0.10448696093993
18	1276	31.000000144425	-0.1084695685777
18	1292	31.004348144425	-0.1085217445777
18	1344	32.000000053281	-0.11250435221312
18	1359	32.004348053281	-0.11255652821312
18	1415	33.000000042148	-0.11653913616859
18	1430	33.004348042148	-0.11659131216859
18	1485	34.000000134389	-0.12057392053756
18	1501	34.004348134389	-0.12062609653756
18	1558	35.000000226312	-0.12460870490525
18	1576	35.004348226312	-0.12466088090525
18	1629	36.000000316073	-0.12864348926429
18	1648	36.004348316073	-0.12869566526429
18	1702	37.000000402388	-0.13267827360955
19	58	3.9	0
19	58	3.9	0
19	58	3.9	0
19	58	3.9	0
19	58	3.9	0.002
19	58	3.9	0.004
19	1137	29.000000323461	0.002
19	1137	29.000000323461	0.012
19	1158	29.004348323461	0.004
19	1204	30.000000234983	0.012
19	1221	30.004348234983	0.004
19	1276	31.000000144425	0.012
19	1292	31.004348144425	0.004
19	1344	32.000000053281	0.012
19	1359	32.004348053281	0.004
19	1415	33.000000042148	0.012
19	1430	33.004348042148	0.004
19	1485	34.000000134389	0.012
19	1501	34.004348134389	0.004
19	1558	35.000000226312	0.012
19	1576	35.004348226312	0.004
19	1629	36.000000316073	0.012
19	1648	36.004348316073	0.004
19	1702	37.000000402388	0.004
20	58	3.9	0
20	58	3.9	0
20	58	3.9	4
21	58	3.9	0
21	58	3.9	0
21	58	3.9	0
21	58	3.9	0.002
21	58	3.9	0.004
21	1137	29.000000323461	0.002
21	1137	29.000000323461	0.012
21	1158	29.004348323461	0.004
21	1204	30.000000234983	0.012
21	1221	30.004348234983	0.004
21	1276	31.000000144425	0.012
21	1292	31.004348144425	0.004
21	1344	32.000000053281	0.012
21	1359	32.004348053281	0.004
21	1415	33.000000042148	0.012
21	1430	33.004348042148	0.004
21	1485	34.000000134389	0.012
21	1501	34.004348134389	0.004
21	1558	35.000000226312	0.012
21	1576	35.004348226312	0.004
21	1629	36.000000316073	0.012
21	1648	36.004348316073	0.004
21	1702	37.000000402388	0.004
22	58	3.9	1
22	1137	29.000000323461	3
22	1158	29.004348323461	1
22	1204	30.000000234983	3
22	1221	30.004348234983	1
22	1276	31.000000144425	3
22	1292	31.004348144425	1
22	1344	32.000000053281	3
22	1359	32.004348053281	1
22	1415	33.000000042148	3
22	1430	33.004348042148	1
22	1485	34.000000134389	3
22	1501	34.004348134389	1
22	1558	35.000000226312	3
22	1576	35.004348226312	1
22	1629	36.000000316073	3
22	1648	36.004348316073	1
23	58	3.9	1
24	113	7.5	0
24	390	20.002964553607	-0.050011858214428
24	406	20.003312553607	-0.050016034214428
24	435	20.003564553607	-0.050041738214428
24	452	20.003565214657	-0.050041740858628
24	471	20.003817214657	-0.050044764858628
24	496	20.004149214657	-0.050078628858628
24	512	20.004149875707	-0.050078631502828
24	567	20.008497875707	-0.050130807502828
24	615	21.000000309786	-0.054096817239144
24	628	21.004348309786	-0.054148993239144
24	671	22.00000028028	-0.05813160112112
24	684	22.00434828028	-0.05818377712112
24	737	23.00000026679	-0.06216638506716
24	752	23.00434826679	-0.06221856106716
24	801	24.000000248263	-0.066201168993052
24	816	24.004348248263	-0.066253344993052
24	863	25.000000229493	-0.070235952917972
24	878	25.004348229493	-0.070288128917972
24	930	26.000000219183	-0.074270736876732
24	946	26.004348219183	-0.074322912876732
24	999	27.000000218823	-0.078305520875292
24	1015	27.004348218823	-0.078357696875292
24	1066	28.000000234316	-0.082340304937264
24	1082	28.004348234316	-0.082392480937264
24	1136	29.000000262794	-0.086375089051176
24	1153	29.004348262794	-0.086427265051176
24	1205	30.000000288027	-0.090409873152108
24	1223	30.004348288027	-0.090462049152108
24	1279	31.000000299297	-0.094444657197188
24	1298	31.004348299297	-0.094496833197188
24	1348	32.00000031303	-0.09847944125212
24	1367	32.00434831303	-0.09853161725212
24	1420	33.000000333999	-0.102514225336
24	1440	33.004348333999	-0.102566401336
24	1489	34.000000354567	-0.10654900941827
24	1509	34.004348354567	-0.10660118541827
24	1560	35.000000371389	-0.11058379348556
24	1580	35.004348371389	-0.11063596948556
24	1631	36.000000379132	-0.11461857751653
24	1652	36.004348379132	-0.11467075351653
24	1701	37.000000375261	-0.11865336150104
24	1721	37.004348375261	-0.11870553750104
24	1771	38.000000366434	-0.12268814546574
24	1792	38.004348366434	-0.12274032146574
24	1841	39.000000362265	-0.12672292944906
24	1861	39.004348362265	-0.12677510544906
24	1910	40.000000362523	-0.13075771345009
24	1930	40.004348362523	-0.13080988945009
24	1979	41.000000368463	-0.13479249747385
24	1998	41.004348368463	-0.13484467347385
24	2047	42.00000037707	-0.13882728150828
24	2066	42.00434837707	-0.13887945750828
24	2115	43.000000383043	-0.14286206553217
24	2133	43.004348383043	-0.14291424153217
24	2182	44.00000038667	-0.14689684954668
24	2200	44.00434838667	-0.14694902554668
24	2249	45.000000388162	-0.15093163355265
24	2266	45.004348388162	-0.15098380955265
24	2314	46.00000038812	-0.15496641755248
24	2330	46.00434838812	-0.15501859355248
24	2381	47.000000387595	-0.15900120155038
24	2397	47.004348387595	-0.15905337755038
24	2446	48.000000383634	-0.16303598553454
24	2462	48.004348383634	-0.16308816153454
24	2512	49.000000375703	-0.16707076950281
24	2528	49.004348375703	-0.16712294550281
24	2577	50.000000367872	-0.17110555347149
24	2593	50.004348367872	-0.17115772947149
24	2643	51.000000363834	-0.17514033745534
24	2659	51.004348363834	-0.17519251345534
24	2708	52.000000363827	-0.17917512145531
24	2724	52.004348363827	-0.17922729745531
24	2774	53.000000367705	-0.18320990547082
24	2790	53.004348367705	-0.18326208147082
24	2839	54.000000375314	-0.18724468950126
24	2855	54.004348375314	-0.18729686550126
24	2905	55.000000381822	-0.19127947352729
24	2921	55.004348381822	-0.19133164952729
24	2970	56.000000387429	-0.19531425754972
24	2986	56.004348387429	-0.19536643354972
24	3036	57.000000387122	-0.19934904154849
24	3052	57.004348387122	-0.19940121754849
24	3101	58.000000380606	-0.20338382552242
24	3117	58.004348380606	-0.20343600152242
24	3167	59.000000365978	-0.20741860946391
24	3183	59.004348365978	-0.20747078546391
24	3232	60.000000351727	-0.21145339340691
24	3248	60.004348351727	-0.21150556940691
25	113	7.5	0
25	113	7.5	0
25	113	7.5	0
25	113	7.5	0
25	113	7.5	0.002
25	113	7.5	0.004
25	390	20.002964553607	0.002
25	390	20.002964553607	0.012
25	406	20.003312553607	0.004
25	414	20.003312553607	0.002
25	414	20.003312553607	0.002
25	414	20.003312553607	0.102
25	435	20.003564553607	0.004
25	435	20.003564553607	0.004
25	452	20.003565214657	0.002
25	452	20.003565214657	0.012
25	471	20.003817214657	0.004
25	475	20.003817214657	0.002
25	475	20.003817214657	0.002
25	475	20.003817214657	0.102
25	496	20.004149214657	0.004
25	496	20.004149214657	0.004
25	512	20.004149875707	0.002
25	512	20.004149875707	0.012
25	567	20.008497875707	0.004
25	615	21.000000309786	0.012
25	628	21.004348309786	0.004
25	671	22.00000028028	0.012
25	684	22.00434828028	0.004
25	737	23.00000026679	0.012
25	752	23.00434826679	0.004
25	801	24.000000248263	0.012
25	816	24.004348248263	0.004
25	863	25.000000229493	0.012
25	878	25.004348229493	0.004
25	930	26.000000219183	0.012
25	946	26.004348219183	0.004
25	999	27.000000218823	0.012
25	1015	27.004348218823	0.004
25	1066	28.000000234316	0.012
25	1082	28.004348234316	0.004
25	1136	29.000000262794	0.012
25	1153	29.004348262794	0.004
25	1205	30.000000288027	0.012
25	1223	30.004348288027	0.004
25	1279	31.000000299297	0.012
25	1298	31.004348299297	0.004
25	1348	32.00000031303	0.012
25	1367	32.00434831303	0.004
25	1420	33.000000333999	0.012
25	1440	33.004348333999	0.004
25	1489	34.000000354567	0.012
25	1509	34.004348354567	0.004
25	1560	35.000000371389	0.012
25	1580	35.004348371389	0.004
25	1631	36.000000379132	0.012
25	1652	36.004348379132	0.004
25	1701	37.000000375261	0.012
25	1721	37.004348375261	0.004
25	1771	38.000000366434	0.012
25	1792	38.004348366434	0.004
25	1841	39.000000362265	0.012
25	1861	39.004348362265	0.004
25	1910	40.000000362523	0.012
25	1930	40.004348362523	0.004
25	1979	41.000000368463	0.012
25	1998	41.004348368463	0.004
25	2047	42.00000037707	0.012
25	2066	42.00434837707	0.004
25	2115	43.000000383043	0.012
25	2133	43.004348383043	0.004
25	2182	44.00000038667	0.012
25	2200	44.00434838667	0.004
25	2249	45.000000388162	0.012
25	2266	45.004348388162	0.004
25	2314	46.00000038812	0.012
25	2330	46.00434838812	0.004
25	2381	47.000000387595	0.012
25	2397	47.004348387595	0.004
25	2446	48.000000383634	0.012
25	2462	48.004348383634	0.004
25	2512	49.000000375703	0.012
25	2528	49.004348375703	0.004
25	2577	50.000000367872	0.012
25	2593	50.004348367872	0.004
25	2643	51.000000363834	0.012
25	2659	51.004348363834	0.004
25	2708	52.000000363827	0.012
25	2724	52.004348363827	0.004
25	2774	53.000000367705	0.012
25	2790	53.004348367705	0.004
25	2839	54.000000375314	0.012
25	2855	54.004348375314	0.004
25	2905	55.000000381822	0.012
25	2921	55.004348381822	0.004
25	2970	56.000000387429	0.012
25	2986	56.004348387429	0.004
25	3036	57.000000387122	0.012
25	3052	57.004348387122	0.004
25	3101	58.000000380606	0.012
25	3117	58.004348380606	0.004
25	3167	59.000000365978	0.012
25	3183	59.004348365978	0.004
25	3232	60.000000351727	0.012
25	3248	60.004348351727	0.004
26	113	7.5	0
26	113	7.5	0
26	113	7.5	4
27	113	7.5	0
27	113	7.5	0
27	113	7.5	0
27	113	7.5	0.002
27	113	7.5	0.004
27	390	20.002964553607	0.002
27	390	20.002964553607	0.012
27	406	20.003312553607	0.004
27	414	20.003312553607	0.002
27	414	20.003312553607	0.002
27	414	20.003312553607	0.102
27	435	20.003564553607	0.004
27	435	20.003564553607	0.004
27	452	20.003565214657	0.002
27	452	20.003565214657	0.012
27	471	20.003817214657	0.004
27	475	20.003817214657	0.002
27	475	20.003817214657	0.002
27	475	20.003817214657	0.102
27	496	20.004149214657	0.004
27	496	20.004149214657	0.004
27	512	20.004149875707	0.002
27	512	20.004149875707	0.012
27	567	20.008497875707	0.004
27	615	21.000000309786	0.012
27	628	21.004348309786	0.004
27	671	22.00000028028	0.012
27	684	22.00434828028	0.004
27	737	23.00000026679	0.012
27	752	23.00434826679	0.004
27	801	24.000000248263	0.012
27	816	24.004348248263	0.004
27	863	25.000000229493	0.012
27	878	25.004348229493	0.004
27	930	26.000000219183	0.012
27	946	26.004348219183	0.004
27	999	27.000000218823	0.012
27	1015	27.004348218823	0.004
27	1066	28.000000234316	0.012
27	1082	28.004348234316	0.004
27	1136	29.000000262794	0.012
27	1153	29.004348262794	0.004
27	1205	30.000000288027	0.012
27	1223	30.004348288027	0.004
27	1279	31.000000299297	0.012
27	1298	31.004348299297	0.004
27	1348	32.00000031303	0.012
27	1367	32.00434831303	0.004
27	1420	33.000000333999	0.012
27	1440	33.004348333999	0.004
27	1489	34.000000354567	0.012
27	1509	34.004348354567	0.004
27	1560	35.000000371389	0.012
27	1580	35.004348371389	0.004
27	1631	36.000000379132	0.012
27	1652	36.004348379132	0.004
27	1701	37.000000375261	0.012
27	1721	37.004348375261	0.004
27	1771	38.000000366434	0.012
27	1792	38.004348366434	0.004
27	1841	39.000000362265	0.012
27	1861	39.004348362265	0.004
27	1910	40.000000362523	0.012
27	1930	40.004348362523	0.004
27	1979	41.000000368463	0.012
27	1998	41.004348368463	0.004
27	2047	42.00000037707	0.012
27	2066	42.00434837707	0.004
27	2115	43.000000383043	0.012
27	2133	43.004348383043	0.004
27	2182	44.00000038667	0.012
27	2200	44.00434838667	0.004
27	2249	45.000000388162	0.012
27	2266	45.004348388162	0.004
27	2314	46.00000038812	0.012
27	2330	46.00434838812	0.004
27	2381	47.000000387595	0.012
27	2397	47.004348387595	0.004
27	2446	48.000000383634	0.012
27	2462	48.004348383634	0.004
27	2512	49.000000375703	0.012
27	2528	49.004348375703	0.004
27	2577	50.000000367872	0.012
27	2593	50.004348367872	0.004
27	2643	51.000000363834	0.012
27	2659	51.004348363834	0.004
27	2708	52.000000363827	0.012
27	2724	52.004348363827	0.004
27	2774	53.000000367705	0.012
27	2790	53.004348367705	0.004
27	2839	54.000000375314	0.012
27	2855	54.004348375314	0.004
27	2905	55.000000381822	0.012
27	2921	55.004348381822	0.004
27	2970	56.000000387429	0.012
27	2986	56.004348387429	0.004
27	3036	57.000000387122	0.012
27	3052	57.004348387122	0.004
27	3101	58.000000380606	0.012
27	3117	58.004348380606	0.004
27	3167	59.000000365978	0.012
27	3183	59.004348365978	0.004
27	3232	60.000000351727	0.012
27	3248	60.004348351727	0.004
28	113	7.5	1
28	390	20.002964553607	3
28	406	20.003312553607	1
28	452	20.003565214657	3
28	471	20.003817214657	1
28	512	20.004149875707	3
28	567	20.008497875707	1
28	615	21.000000309786	3
28	628	21.004348309786	1
28	671	22.00000028028	3
28	684	22.00434828028	1
28	737	23.00000026679	3
28	752	23.00434826679	1
28	801	24.000000248263	3
28	816	24.004348248263	1
28	863	25.000000229493	3
28	878	25.004348229493	1
28	930	26.000000219183	3
28	946	26.004348219183	1
28	999	27.000000218823	3
28	1015	27.004348218823	1
28	1066	28.000000234316	3
28	1082	28.004348234316	1
28	1136	29.000000262794	3
28	1153	29.004348262794	1
28	1205	30.000000288027	3
28	1223	30.004348288027	1
28	1279	31.000000299297	3
28	1298	31.004348299297	1
28	1348	32.00000031303	3
28	1367	32.00434831303	1
28	1420	33.000000333999	3
28	1440	33.004348333999	1
28	1489	34.000000354567	3
28	1509	34.004348354567	1
28	1560	35.000000371389	3
28	1580	35.004348371389	1
28	1631	36.000000379132	3
28	1652	36.004348379132	1
28	1701	37.000000375261	3
28	1721	37.004348375261	1
28	1771	38.000000366434	3
28	1792	38.004348366434	1
28	1841	39.000000362265	3
28	1861	39.004348362265	1
28	1910	40.000000362523	3
28	1930	40.004348362523	1
28	1979	41.000000368463	3
28	1998	41.004348368463	1
28	2047	42.00000037707	3
28	2066	42.00434837707	1
28	2115	43.000000383043	3
28	2133	43.004348383043	1
28	2182	44.00000038667	3
28	2200	44.00434838667	1
28	2249	45.000000388162	3
28	2266	45.004348388162	1
28	2314	46.00000038812	3
28	2330	46.00434838812	1
28	2381	47.000000387595	3
28	2397	47.004348387595	1
28	2446	48.000000383634	3
28	2462	48.004348383634	1
28	2512	49.000000375703	3
28	2528	49.004348375703	1
28	2577	50.000000367872	3
28	2593	50.004348367872	1
28	2643	51.000000363834	3
28	2659	51.004348363834	1
28	2708	52.000000363827	3
28	2724	52.004348363827	1
28	2774	53.000000367705	3
28	2790	53.004348367705	1
28	2839	54.000000375314	3
28	2855	54.004348375314	1
28	2905	55.000000381822	3
28	2921	55.004348381822	1
28	2970	56.000000387429	3
28	2986	56.004348387429	1
28	3036	57.000000387122	3
28	3052	57.004348387122	1
28	3101	58.000000380606	3
28	3117	58.004348380606	1
28	3167	59.000000365978	3
28	3183	59.004348365978	1
28	3232	60.000000351727	3
28	3248	60.004348351727	1
29	113	7.5	1
29	414	20.003312553607	2
29	435	20.003564553607	1
29	475	20.003817214657	2
29	496	20.004149214657	1
30	119	7.6	0
30	1207	30.000000379829	-0.089600001519316
30	1230	30.004348379829	-0.089652177519316
30	1278	31.000000296473	-0.093634785185892
30	1296	31.004348296473	-0.093686961185892
30	1347	32.000000212641	-0.097669568850564
30	1365	32.004348212641	-0.097721744850564
30	1416	33.00000012552	-0.10170435250208
30	1432	33.00434812552	-0.10175652850208
30	1484	34.000000035268	-0.10573913614107
30	1499	34.004348035268	-0.10579131214107
30	1555	35.000000059886	-0.10977392023954
30	1570	35.004348059886	-0.10982609623954
30	1626	36.000000149701	-0.1138087045988
30	1642	36.004348149701	-0.1138608805988
30	1699	37.000000235926	-0.1178434889437
30	1717	37.004348235926	-0.1178956649437
30	1769	38.000000319471	-0.12187827327788
30	1788	38.004348319471	-0.12193044927788
30	1842	39.00000040355	-0.1259130576142
31	119	7.6	0
31	119	7.6	0
31	119	7.6	0
31	119	7.6	0
31	119	7.6	0.002
31	119	7.6	0.004
31	1207	30.000000379829	0.002
31	1207	30.000000379829	0.012
31	1230	30.004348379829	0.004
31	1278	31.000000296473	0.012
31	1296	31.004348296473	0.004
31	1347	32.000000212641	0.012
31	1365	32.004348212641	0.004
31	1416	33.00000012552	0.012
31	1432	33.00434812552	0.004
31	1484	34.000000035268	0.012
31	1499	34.004348035268	0.004
31	1555	35.000000059886	0.012
31	1570	35.004348059886	0.004
31	1626	36.000000149701	0.012
31	1642	36.004348149701	0.004
31	1699	37.000000235926	0.012
31	1717	37.004348235926	0.004
31	1769	38.000000319471	0.012
31	1788	38.004348319471	0.004
31	1842	39.00000040355	0.004
32	119	7.6	0
32	119	7.6	0
32	119	7.6	4
33	119	7.6	0
33	119	7.6	0
33	119	7.6	0
33	119	7.6	0.002
33	119	7.6	0.004
33	1207	30.000000379829	0.002
33	1207	30.000000379829	0.012
33	1230	30.004348379829	0.004
33	1278	31.000000296473	0.012
33	1296	31.004348296473	0.004
33	1347	32.000000212641	0.012
33	1365	32.004348212641	0.004
33	1416	33.00000012552	0.012
33	1432	33.00434812552	0.004
33	1484	34.000000035268	0.012
33	1499	34.004348035268	0.004
33	1555	35.000000059886	0.012
33	1570	35.004348059886	0.004
33	1626	36.000000149701	0.012
33	1642	36.004348149701	0.004
33	1699	37.000000235926	0.012
33	1717	37.004348235926	0.004
33	1769	38.000000319471	0.012
33	1788	38.004348319471	0.004
33	1842	39.00000040355	0.004
34	119	7.6	1
34	1207	30.000000379829	3
34	1230	30.004348379829	1
34	1278	31.000000296473	3
34	1296	31.004348296473	1
34	1347	32.000000212641	3
34	1365	32.004348212641	1
34	1416	33.00000012552	3
34	1432	33.00434812552	1
34	1484	34.000000035268	3
34	1499	34.004348035268	1
34	1555	35.000000059886	3
34	1570	35.004348059886	1
34	1626	36.000000149701	3
34	1642	36.004348149701	1
34	1699	37.000000235926	3
34	1717	37.004348235926	1
34	1769	38.000000319471	3
34	1788	38.004348319471	1
35	119	7.6	1
36	182	11.2	0
36	416	20.003312723366	-0.035213250893464
36	436	20.003564723366	-0.035216274893464
36	453	20.003565383893	-0.035216277535572
36	477	20.003817384416	-0.035217285537664
36	497	20.004149384416	-0.035221269537664
36	513	20.004150044943	-0.035221272179772
36	535	20.00688866982	-0.03523222667928
36	551	20.00723666982	-0.03523640267928
36	572	20.008498044943	-0.035241448179772
36	864	25.000000398618	-0.055207457594472
36	883	25.004348398618	-0.055259633594472
36	931	26.000000384829	-0.059242241539316
36	951	26.004348384829	-0.059294417539316
36	1001	27.000000377024	-0.063277025508096
36	1022	27.004348377024	-0.063329201508096
36	1068	28.000000375873	-0.067311809503492
36	1089	28.004348375873	-0.067363985503492
36	1138	29.000000378101	-0.071346593512404
36	1160	29.004348378101	-0.071398769512404
36	1206	30.000000378796	-0.075381377515184
36	1228	30.004348378796	-0.075433553515184
36	1280	31.000000381782	-0.079416161527128
36	1303	31.004348381782	-0.079468337527128
36	1350	32.000000394479	-0.083450945577916
36	1374	32.004348394479	-0.083503121577916
36	1421	33.000000427213	-0.087485729708852
37	182	11.2	0
37	182	11.2	0
37	182	11.2	0
37	182	11.2	0
37	182	11.2	0.002
37	182	11.2	0.004
37	416	20.003312723366	0.002
37	416	20.003312723366	0.012
37	436	20.003564723366	0.004
37	453	20.003565383893	0.004
37	477	20.003817384416	0.002
37	477	20.003817384416	0.012
37	497	20.004149384416	0.004
37	513	20.004150044943	0.004
37	535	20.00688866982	0.002
[...]
164	3280	53.8	0
164	3280	53.9	0
164	3280	54	0
164	3280	54.1	0
164	3280	54.2	0
164	3280	54.3	0
164	3280	54.4	0
164	3280	54.5	0
164	3280	54.6	0
164	3280	54.7	0
164	3280	54.8	0
164	3280	54.9	0
164	3280	55	0
164	3280	55.1	0
164	3280	55.2	0
164	3280	55.3	0
164	3280	55.4	0
164	3280	55.5	0
164	3280	55.6	0
164	3280	55.7	0
164	3280	55.8	0
164	3280	55.9	0
164	3280	56	0
164	3280	56.1	0
164	3280	56.2	0
164	3280	56.3	0
164	3280	56.4	0
164	3280	56.5	0
164	3280	56.6	0
164	3280	56.7	0
164	3280	56.8	0
164	3280	56.9	0
164	3280	57	0
164	3280	57.1	0
164	3280	57.2	0
164	3280	57.3	0
164	3280	57.4	0
164	3280	57.5	0
164	3280	57.6	0
164	3280	57.7	0
164	3280	57.8	0
164	3280	57.9	0
164	3280	58	0
164	3280	58.1	0
164	3280	58.2	0
164	3280	58.3	0
164	3280	58.4	0
164	3280	58.5	0
164	3280	58.6	0
164	3280	58.7	0
164	3280	58.8	0
164	3280	58.9	0
164	3280	59	0
164	3280	59.1	0
164	3280	59.2	0
164	3280	59.3	0
164	3280	59.4	0
164	3280	59.5	0
164	3280	59.6	0
164	3280	59.7	0
164	3280	59.8	0
164	3280	59.9	0
164	3280	60	0
164	3280	60.1	0
164	3280	60.2	0
164	3280	60.3	0
164	3280	60.4	0
164	3280	60.5	0
165	3280	0.1	0
165	3280	0.2	0
165	3280	0.3	0
165	3280	0.4	0
165	3280	0.5	0
165	3280	0.6	0
165	3280	0.7	0
165	3280	0.8	0
165	3280	0.9	0
165	3280	1	0
165	3280	1.1	0
165	3280	1.2	0
165	3280	1.3	0
165	3280	1.4	0
165	3280	1.5	0
165	3280	1.6	0
165	3280	1.7	0
165	3280	1.8	0
165	3280	1.9	0
165	3280	2	0
165	3280	2.1	0
165	3280	2.2	0
165	3280	2.3	0
165	3280	2.4	0
165	3280	2.5	0
165	3280	2.6	0
165	3280	2.7	0
165	3280	2.8	0
165	3280	2.9	0
165	3280	3	0
165	3280	3.1	0
165	3280	3.2	0
165	3280	3.3	0
165	3280	3.4	0
165	3280	3.5	0
165	3280	3.6	0
165	3280	3.7	0
165	3280	3.8	0
165	3280	3.9	0
165	3280	4	0
165	3280	4.1	0
165	3280	4.2	0
165	3280	4.3	0
165	3280	4.4	0
165	3280	4.5	0
165	3280	4.6	0
165	3280	4.7	0
165	3280	4.8	0
165	3280	4.9	0
165	3280	5	0
165	3280	5.1	0
165	3280	5.2	0
165	3280	5.3	0
165	3280	5.4	0
165	3280	5.5	0
165	3280	5.6	0
165	3280	5.7	0
165	3280	5.8	0
165	3280	5.9	0
165	3280	6	0
165	3280	6.1	0
165	3280	6.2	0
165	3280	6.3	0
165	3280	6.4	0
165	3280	6.5	0
165	3280	6.6	0
165	3280	6.7	0
165	3280	6.8	0
165	3280	6.9	0
165	3280	7	0
165	3280	7.1	0
165	3280	7.2	0
165	3280	7.3	0
165	3280	7.4	0
165	3280	7.5	0
165	3280	7.6	0
165	3280	7.7	0
165	3280	7.8	0
165	3280	7.9	0
165	3280	8	0
165	3280	8.1	0
165	3280	8.2	0
165	3280	8.3	0
165	3280	8.4	0
165	3280	8.5	0
165	3280	8.6	0
165	3280	8.7	0
165	3280	8.8	0
165	3280	8.9	0
165	3280	9	0
165	3280	9.1	0
165	3280	9.2	0
165	3280	9.3	0
165	3280	9.4	0
165	3280	9.5	0
165	3280	9.6	0
165	3280	9.7	0
165	3280	9.8	0
165	3280	9.9	0
165	3280	10	0
165	3280	10.1	0
165	3280	10.2	0
165	3280	10.3	0
165	3280	10.4	0
165	3280	10.5	0
165	3280	10.6	0
165	3280	10.7	0
165	3280	10.8	0
165	3280	10.9	0
165	3280	11	0
165	3280	11.1	0
165	3280	11.2	0
165	3280	11.3	0
165	3280	11.4	0
165	3280	11.5	0
165	3280	11.6	0
165	3280	11.7	0
165	3280	11.8	0
165	3280	11.9	0
165	3280	12	0
165	3280	12.1	0
165	3280	12.2	0
165	3280	12.3	0
165	3280	12.4	0
165	3280	12.5	0
165	3280	12.6	0
165	3280	12.7	0
165	3280	12.8	0
165	3280	12.9	0
165	3280	13	0
165	3280	13.1	0
165	3280	13.2	0
165	3280	13.3	0
165	3280	13.4	0
165	3280	13.5	0
165	3280	13.6	0
165	3280	13.7	0
165	3280	13.8	0
165	3280	13.9	0
165	3280	14	0
165	3280	14.1	0
165	3280	14.2	0
165	3280	14.3	0
165	3280	14.4	0
165	3280	14.5	0
165	3280	14.6	0
165	3280	14.7	0
165	3280	14.8	0
165	3280	14.9	0
165	3280	15	0
165	3280	15.1	0
165	3280	15.2	0
165	3280	15.3	0
165	3280	15.4	0
165	3280	15.5	0
165	3280	15.6	0
165	3280	15.7	0
165	3280	15.8	0
165	3280	15.9	0
165	3280	16	0
165	3280	16.1	0
165	3280	16.2	0
165	3280	16.3	0
165	3280	16.4	0
165	3280	16.5	0
165	3280	16.6	0
165	3280	16.7	0
165	3280	16.8	0
165	3280	16.9	0
165	3280	17	0
165	3280	17.1	0
165	3280	17.2	0
165	3280	17.3	0
165	3280	17.4	0
165	3280	17.5	0
165	3280	17.6	0
165	3280	17.7	0
165	3280	17.8	0
165	3280	17.9	0
165	3280	18	0
165	3280	18.1	0
165	3280	18.2	0
165	3280	18.3	0
165	3280	18.4	0
165	3280	18.5	0
165	3280	18.6	0
165	3280	18.7	0
165	3280	18.8	0
165	3280	18.9	0
165	3280	19	0
165	3280	19.1	0
165	3280	19.2	0
165	3280	19.3	0
165	3280	19.4	0
165	3280	19.5	0
165	3280	19.6	0
165	3280	19.7	0
165	3280	19.8	0
165	3280	19.9	0
165	3280	20	0
165	3280	20.1	0
165	3280	20.2	0
165	3280	20.3	0
165	3280	20.4	0
165	3280	20.5	0
165	3280	20.6	0
165	3280	20.7	0
165	3280	20.8	0
165	3280	20.9	0
165	3280	21	0
165	3280	21.1	0
165	3280	21.2	0
165	3280	21.3	0
165	3280	21.4	0
165	3280	21.5	0
165	3280	21.6	0
165	3280	21.7	0
165	3280	21.8	0
165	3280	21.9	0
165	3280	22	0
165	3280	22.1	0
165	3280	22.2	0
165	3280	22.3	0
165	3280	22.4	0
165	3280	22.5	0
165	3280	22.6	0
165	3280	22.7	0
165	3280	22.8	0
165	3280	22.9	0
165	3280	23	0
165	3280	23.1	0
165	3280	23.2	0
165	3280	23.3	0
165	3280	23.4	0
165	3280	23.5	0
165	3280	23.6	0
165	3280	23.7	0
165	3280	23.8	0
165	3280	23.9	0
165	3280	24	0
165	3280	24.1	0
165	3280	24.2	0
165	3280	24.3	0
165	3280	24.4	0
165	3280	24.5	0
165	3280	24.6	0
165	3280	24.7	0
165	3280	24.8	0
165	3280	24.9	0
165	3280	25	0
165	3280	25.1	0
165	3280	25.2	0
165	3280	25.3	0
165	3280	25.4	0
165	3280	25.5	0
165	3280	25.6	0
165	3280	25.7	0
165	3280	25.8	0
165	3280	25.9	0
165	3280	26	0
165	3280	26.1	0
165	3280	26.2	0
165	3280	26.3	0
165	3280	26.4	0
165	3280	26.5	0
165	3280	26.6	0
165	3280	26.7	0
165	3280	26.8	0
165	3280	26.9	0
165	3280	27	0
165	3280	27.1	0
165	3280	27.2	0
165	3280	27.3	0
165	3280	27.4	0
165	3280	27.5	0
165	3280	27.6	0
165	3280	27.7	0
165	3280	27.8	0
165	3280	27.9	0
165	3280	28	0
165	3280	28.1	0
165	3280	28.2	0
165	3280	28.3	0
165	3280	28.4	0
165	3280	28.5	0
165	3280	28.6	0
165	3280	28.7	0
165	3280	28.8	0
165	3280	28.9	0
165	3280	29	0
165	3280	29.1	0
165	3280	29.2	0
165	3280	29.3	0
165	3280	29.4	0
165	3280	29.5	0
165	3280	29.6	0
165	3280	29.7	0
165	3280	29.8	0
165	3280	29.9	0
165	3280	30	0
165	3280	30.1	0
165	3280	30.2	0
165	3280	30.3	0
165	3280	30.4	0
165	3280	30.5	0
165	3280	30.6	0
165	3280	30.7	0
165	3280	30.8	0
165	3280	30.9	0
165	3280	31	0
165	3280	31.1	0
165	3280	31.2	0
165	3280	31.3	0
165	3280	31.4	0
165	3280	31.5	0
165	3280	31.6	0
165	3280	31.7	0
165	3280	31.8	0
165	3280	31.9	0
165	3280	32	0
165	3280	32.1	0
165	3280	32.2	0
165	3280	32.3	0
165	3280	32.4	0
165	3280	32.5	0
165	3280	32.6	0
165	3280	32.7	0
165	3280	32.8	0
165	3280	32.9	0
165	3280	33	0
165	3280	33.1	0
165	3280	33.2	0
165	3280	33.3	0
165	3280	33.4	0
165	3280	33.5	0
165	3280	33.6	0
165	3280	33.7	0
165	3280	33.8	0
165	3280	33.9	0
165	3280	34	0
165	3280	34.1	0
165	3280	34.2	0
165	3280	34.3	0
165	3280	34.4	0
165	3280	34.5	0
165	3280	34.6	0
165	3280	34.7	0
165	3280	34.8	0
165	3280	34.9	0
165	3280	35	0
165	3280	35.1	0
165	3280	35.2	0
165	3280	35.3	0
165	3280	35.4	0
165	3280	35.5	0
165	3280	35.6	0
165	3280	35.7	0
165	3280	35.8	0
165	3280	35.9	0
165	3280	36	0
165	3280	36.1	0
165	3280	36.2	0
165	3280	36.3	0
165	3280	36.4	0
165	3280	36.5	0
165	3280	36.6	0
165	3280	36.7	0
165	3280	36.8	0
165	3280	36.9	0
165	3280	37	0
165	3280	37.1	0
165	3280	37.2	0
165	3280	37.3	0
165	3280	37.4	0
165	3280	37.5	0
165	3280	37.6	0
165	3280	37.7	0
165	3280	37.8	0
165	3280	37.9	0
165	3280	38	0
165	3280	38.1	0
165	3280	38.2	0
165	3280	38.3	0
165	3280	38.4	0
165	3280	38.5	0
165	3280	38.6	0
165	3280	38.7	0
165	3280	38.8	0
165	3280	38.9	0
165	3280	39	0
165	3280	39.1	0
165	3280	39.2	0
165	3280	39.3	0
165	3280	39.4	0
165	3280	39.5	0
165	3280	39.6	0
165	3280	39.7	0
165	3280	39.8	0
165	3280	39.9	0
165	3280	40	0
165	3280	40.1	0
165	3280	40.2	0
165	3280	40.3	0
165	3280	40.4	0
165	3280	40.5	0
165	3280	40.6	0
165	3280	40.7	0
165	3280	40.8	0
165	3280	40.9	0
165	3280	41	0
165	3280	41.1	0
165	3280	41.2	0
165	3280	41.3	0
165	3280	41.4	0
165	3280	41.5	0
165	3280	41.6	0
165	3280	41.7	0
165	3280	41.8	0
165	3280	41.9	0
165	3280	42	0
165	3280	42.1	0
165	3280	42.2	0
165	3280	42.3	0
165	3280	42.4	0
165	3280	42.5	0
165	3280	42.6	0
165	3280	42.7	0
165	3280	42.8	0
165	3280	42.9	0
165	3280	43	0
165	3280	43.1	0
165	3280	43.2	0
165	3280	43.3	0
165	3280	43.4	0
165	3280	43.5	0
165	3280	43.6	0
165	3280	43.7	0
165	3280	43.8	0
165	3280	43.9	0
165	3280	44	0
165	3280	44.1	0
165	3280	44.2	0
165	3280	44.3	0
165	3280	44.4	0
165	3280	44.5	0
165	3280	44.6	0
165	3280	44.7	0
165	3280	44.8	0
165	3280	44.9	0
165	3280	45	0
165	3280	45.1	0
165	3280	45.2	0
165	3280	45.3	0
165	3280	45.4	0
165	3280	45.5	0
165	3280	45.6	0
165	3280	45.7	0
165	3280	45.8	0
165	3280	45.9	0
165	3280	46	0
165	3280	46.1	0
165	3280	46.2	0
165	3280	46.3	0
165	3280	46.4	0
165	3280	46.5	0
165	3280	46.6	0
165	3280	46.7	0
165	3280	46.8	0
165	3280	46.9	0
165	3280	47	0
165	3280	47.1	0
165	3280	47.2	0
165	3280	47.3	0
165	3280	47.4	0
165	3280	47.5	0
165	3280	47.6	0
165	3280	47.7	0
165	3280	47.8	0
165	3280	47.9	0
165	3280	48	0
165	3280	48.1	0
165	3280	48.2	0
165	3280	48.3	0
165	3280	48.4	0
165	3280	48.5	0
165	3280	48.6	0
165	3280	48.7	0
165	3280	48.8	0
165	3280	48.9	0
165	3280	49	0
165	3280	49.1	0
165	3280	49.2	0
165	3280	49.3	0
165	3280	49.4	0
165	3280	49.5	0
165	3280	49.6	0
165	3280	49.7	0
165	3280	49.8	0
165	3280	49.9	0
165	3280	50	0
165	3280	50.1	0
165	3280	50.2	0
165	3280	50.3	0
165	3280	50.4	0
165	3280	50.5	0
165	3280	50.6	0
165	3280	50.7	0
165	3280	50.8	0
165	3280	50.9	0
165	3280	51	0
165	3280	51.1	0
165	3280	51.2	0
165	3280	51.3	0
165	3280	51.4	0
165	3280	51.5	0
165	3280	51.6	0
165	3280	51.7	0
165	3280	51.8	0
165	3280	51.9	0
165	3280	52	0
165	3280	52.1	0
165	3280	52.2	0
165	3280	52.3	0
165	3280	52.4	0
165	3280	52.5	0
165	3280	52.6	0
165	3280	52.7	0
165	3280	52.8	0
165	3280	52.9	0
165	3280	53	0
165	3280	53.1	0
165	3280	53.2	0
165	3280	53.3	0
165	3280	53.4	0
165	3280	53.5	0
165	3280	53.6	0
165	3280	53.7	0
165	3280	53.8	0
165	3280	53.9	0
165	3280	54	0
165	3280	54.1	0
165	3280	54.2	0
165	3280	54.3	0
165	3280	54.4	0
165	3280	54.5	0
165	3280	54.6	0
165	3280	54.7	0
165	3280	54.8	0
165	3280	54.9	0
165	3280	55	0
165	3280	55.1	0
165	3280	55.2	0
165	3280	55.3	0
165	3280	55.4	0
165	3280	55.5	0
165	3280	55.6	0
165	3280	55.7	0
165	3280	55.8	0
165	3280	55.9	0
165	3280	56	0
165	3280	56.1	0
165	3280	56.2	0
165	3280	56.3	0
165	3280	56.4	0
165	3280	56.5	0
165	3280	56.6	0
165	3280	56.7	0
165	3280	56.8	0
165	3280	56.9	0
165	3280	57	0
165	3280	57.1	0
165	3280	57.2	0
165	3280	57.3	0
165	3280	57.4	0
165	3280	57.5	0
165	3280	57.6	0
165	3280	57.7	0
165	3280	57.8	0
165	3280	57.9	0
165	3280	58	0
165	3280	58.1	0
165	3280	58.2	0
165	3280	58.3	0
165	3280	58.4	0
165	3280	58.5	0
165	3280	58.6	0
165	3280	58.7	0
165	3280	58.8	0
165	3280	58.9	0
165	3280	59	0
165	3280	59.1	0
165	3280	59.2	0
165	3280	59.3	0
165	3280	59.4	0
165	3280	59.5	0
165	3280	59.6	0
165	3280	59.7	0
165	3280	59.8	0
165	3280	59.9	0
165	3280	60	0
165	3280	60.1	0
165	3280	60.2	0
165	3280	60.3	0
165	3280	60.4	0
165	3280	60.5	0
166	3280	0.1	0
166	3280	0.2	0
166	3280	0.3	0
166	3280	0.4	0
166	3280	0.5	0
166	3280	0.6	0
166	3280	0.7	0
166	3280	0.8	0
166	3280	0.9	0
166	3280	1	0
166	3280	1.1	0
166	3280	1.2	0
166	3280	1.3	0
166	3280	1.4	0
166	3280	1.5	0
166	3280	1.6	0
166	3280	1.7	0
166	3280	1.8	0
166	3280	1.9	0
166	3280	2	0
166	3280	2.1	0
166	3280	2.2	0
166	3280	2.3	0
166	3280	2.4	0
166	3280	2.5	0
166	3280	2.6	0
166	3280	2.7	0
166	3280	2.8	0
166	3280	2.9	0
166	3280	3	0
166	3280	3.1	0
166	3280	3.2	0
166	3280	3.3	0
166	3280	3.4	0
166	3280	3.5	0
166	3280	3.6	0
166	3280	3.7	0
166	3280	3.8	0
166	3280	3.9	0
166	3280	4	0
166	3280	4.1	0
166	3280	4.2	0
166	3280	4.3	0
166	3280	4.4	0
166	3280	4.5	0
166	3280	4.6	0
166	3280	4.7	0
166	3280	4.8	0
166	3280	4.9	0
166	3280	5	0
166	3280	5.1	0
166	3280	5.2	0
166	3280	5.3	0
166	3280	5.4	0
166	3280	5.5	0
166	3280	5.6	0
166	3280	5.7	0
166	3280	5.8	0
166	3280	5.9	0
166	3280	6	0
166	3280	6.1	0
166	3280	6.2	0
166	3280	6.3	0
166	3280	6.4	0
166	3280	6.5	0
166	3280	6.6	0
166	3280	6.7	0
166	3280	6.8	0
166	3280	6.9	0
166	3280	7	0
166	3280	7.1	0
166	3280	7.2	0
166	3280	7.3	0
166	3280	7.4	0
166	3280	7.5	0
166	3280	7.6	0
166	3280	7.7	0
166	3280	7.8	0
166	3280	7.9	0
166	3280	8	0
166	3280	8.1	0
166	3280	8.2	0
166	3280	8.3	0
166	3280	8.4	0
166	3280	8.5	0
166	3280	8.6	0
166	3280	8.7	0
166	3280	8.8	0
166	3280	8.9	0
166	3280	9	0
166	3280	9.1	0
166	3280	9.2	0
166	3280	9.3	0
166	3280	9.4	0
166	3280	9.5	0
166	3280	9.6	0
166	3280	9.7	0
166	3280	9.8	0
166	3280	9.9	0
166	3280	10	0
166	3280	10.1	0
166	3280	10.2	0
166	3280	10.3	0
166	3280	10.4	0
166	3280	10.5	0
166	3280	10.6	0
166	3280	10.7	0
166	3280	10.8	0
166	3280	10.9	0
166	3280	11	0
166	3280	11.1	0
166	3280	11.2	0
166	3280	11.3	0
166	3280	11.4	0
166	3280	11.5	0
166	3280	11.6	0
166	3280	11.7	0
166	3280	11.8	0
166	3280	11.9	0
166	3280	12	0
166	3280	12.1	0
166	3280	12.2	0
166	3280	12.3	0
166	3280	12.4	0
166	3280	12.5	0
166	3280	12.6	0
166	3280	12.7	0
166	3280	12.8	0
166	3280	12.9	0
166	3280	13	0
166	3280	13.1	0
166	3280	13.2	0
166	3280	13.3	0
166	3280	13.4	0
166	3280	13.5	0
166	3280	13.6	0
166	3280	13.7	0
166	3280	13.8	0
166	3280	13.9	0
166	3280	14	0
166	3280	14.1	0
166	3280	14.2	0
166	3280	14.3	0
166	3280	14.4	0
166	3280	14.5	0
166	3280	14.6	0
166	3280	14.7	0
166	3280	14.8	0
166	3280	14.9	0
166	3280	15	0
166	3280	15.1	0
166	3280	15.2	0
166	3280	15.3	0
166	3280	15.4	0
166	3280	15.5	0
166	3280	15.6	0
166	3280	15.7	0
166	3280	15.8	0
166	3280	15.9	0
166	3280	16	0
166	3280	16.1	0
166	3280	16.2	0
166	3280	16.3	0
166	3280	16.4	0
166	3280	16.5	0
166	3280	16.6	0
166	3280	16.7	0
166	3280	16.8	0
166	3280	16.9	0
166	3280	17	0
166	3280	17.1	0
166	3280	17.2	0
166	3280	17.3	0
166	3280	17.4	0
166	3280	17.5	0
166	3280	17.6	0
166	3280	17.7	0
166	3280	17.8	0
166	3280	17.9	0
166	3280	18	0
166	3280	18.1	0
166	3280	18.2	0
166	3280	18.3	0
166	3280	18.4	0
166	3280	18.5	0
166	3280	18.6	0
166	3280	18.7	0
166	3280	18.8	0
166	3280	18.9	0
166	3280	19	0
166	3280	19.1	0
166	3280	19.2	0
166	3280	19.3	0
166	3280	19.4	0
166	3280	19.5	0
166	3280	19.6	0
166	3280	19.7	0
166	3280	19.8	0
166	3280	19.9	0
166	3280	20	0
166	3280	20.1	0
166	3280	20.2	0
166	3280	20.3	0
166	3280	20.4	0
166	3280	20.5	0
166	3280	20.6	0
166	3280	20.7	0
166	3280	20.8	0
166	3280	20.9	0
166	3280	21	0
166	3280	21.1	0
166	3280	21.2	0
166	3280	21.3	0
166	3280	21.4	0
166	3280	21.5	0
166	3280	21.6	0
166	3280	21.7	0
166	3280	21.8	0
166	3280	21.9	0
166	3280	22	0
166	3280	22.1	0
166	3280	22.2	0
166	3280	22.3	0
166	3280	22.4	0
166	3280	22.5	0
166	3280	22.6	0
166	3280	22.7	0
166	3280	22.8	0
166	3280	22.9	0
166	3280	23	0
166	3280	23.1	0
166	3280	23.2	0
166	3280	23.3	0
166	3280	23.4	0
166	3280	23.5	0
166	3280	23.6	0
166	3280	23.7	0
166	3280	23.8	0
166	3280	23.9	0
166	3280	24	0
166	3280	24.1	0
166	3280	24.2	0
166	3280	24.3	0
166	3280	24.4	0
166	3280	24.5	0
166	3280	24.6	0
166	3280	24.7	0
166	3280	24.8	0
166	3280	24.9	0
166	3280	25	0
166	3280	25.1	0
166	3280	25.2	0
166	3280	25.3	0
166	3280	25.4	0
166	3280	25.5	0
166	3280	25.6	0
166	3280	25.7	0
166	3280	25.8	0
166	3280	25.9	0
166	3280	26	0
166	3280	26.1	0
166	3280	26.2	0
166	3280	26.3	0
166	3280	26.4	0
166	3280	26.5	0
166	3280	26.6	0
166	3280	26.7	0
166	3280	26.8	0
166	3280	26.9	0
166	3280	27	0
166	3280	27.1	0
166	3280	27.2	0
166	3280	27.3	0
166	3280	27.4	0
166	3280	27.5	0
166	3280	27.6	0
166	3280	27.7	0
166	3280	27.8	0
166	3280	27.9	0
166	3280	28	0
166	3280	28.1	0
166	3280	28.2	0
166	3280	28.3	0
166	3280	28.4	0
166	3280	28.5	0
166	3280	28.6	0
166	3280	28.7	0
166	3280	28.8	0
166	3280	28.9	0
166	3280	29	0
166	3280	29.1	0
166	3280	29.2	0
166	3280	29.3	0
166	3280	29.4	0
166	3280	29.5	0
166	3280	29.6	0
166	3280	29.7	0
166	3280	29.8	0
166	3280	29.9	0
166	3280	30	0
166	3280	30.1	0
166	3280	30.2	0
166	3280	30.3	0
166	3280	30.4	0
166	3280	30.5	0
166	3280	30.6	0
166	3280	30.7	0
166	3280	30.8	0
166	3280	30.9	0
166	3280	31	0
166	3280	31.1	0
166	3280	31.2	0
166	3280	31.3	0
166	3280	31.4	0
166	3280	31.5	0
166	3280	31.6	0
166	3280	31.7	0
166	3280	31.8	0
166	3280	31.9	0
166	3280	32	0
166	3280	32.1	0
166	3280	32.2	0
166	3280	32.3	0
166	3280	32.4	0
166	3280	32.5	0
166	3280	32.6	0
166	3280	32.7	0
166	3280	32.8	0
166	3280	32.9	0
166	3280	33	0
166	3280	33.1	0
166	3280	33.2	0
166	3280	33.3	0
166	3280	33.4	0
166	3280	33.5	0
166	3280	33.6	0
166	3280	33.7	0
166	3280	33.8	0
166	3280	33.9	0
166	3280	34	0
166	3280	34.1	0
166	3280	34.2	0
166	3280	34.3	0
166	3280	34.4	0
166	3280	34.5	0
166	3280	34.6	0
166	3280	34.7	0
166	3280	34.8	0
166	3280	34.9	0
166	3280	35	0
166	3280	35.1	0
166	3280	35.2	0
166	3280	35.3	0
166	3280	35.4	0
166	3280	35.5	0
166	3280	35.6	0
166	3280	35.7	0
166	3280	35.8	0
166	3280	35.9	0
166	3280	36	0
166	3280	36.1	0
166	3280	36.2	0
166	3280	36.3	0
166	3280	36.4	0
166	3280	36.5	0
166	3280	36.6	0
166	3280	36.7	0
166	3280	36.8	0
166	3280	36.9	0
166	3280	37	0
166	3280	37.1	0
166	3280	37.2	0
166	3280	37.3	0
166	3280	37.4	0
166	3280	37.5	0
166	3280	37.6	0
166	3280	37.7	0
166	3280	37.8	0
166	3280	37.9	0
166	3280	38	0
166	3280	38.1	0
166	3280	38.2	0
166	3280	38.3	0
166	3280	38.4	0
166	3280	38.5	0
166	3280	38.6	0
166	3280	38.7	0
166	3280	38.8	0
166	3280	38.9	0
166	3280	39	0
166	3280	39.1	0
166	3280	39.2	0
166	3280	39.3	0
166	3280	39.4	0
166	3280	39.5	0
166	3280	39.6	0
166	3280	39.7	0
166	3280	39.8	0
166	3280	39.9	0
166	3280	40	0
166	3280	40.1	0
166	3280	40.2	0
166	3280	40.3	0
166	3280	40.4	0
166	3280	40.5	0
166	3280	40.6	0
166	3280	40.7	0
166	3280	40.8	0
166	3280	40.9	0
166	3280	41	0
166	3280	41.1	0
166	3280	41.2	0
166	3280	41.3	0
166	3280	41.4	0
166	3280	41.5	0
166	3280	41.6	0
166	3280	41.7	0
166	3280	41.8	0
166	3280	41.9	0
166	3280	42	0
166	3280	42.1	0
166	3280	42.2	0
166	3280	42.3	0
166	3280	42.4	0
166	3280	42.5	0
166	3280	42.6	0
166	3280	42.7	0
166	3280	42.8	0
166	3280	42.9	0
166	3280	43	0
166	3280	43.1	0
166	3280	43.2	0
166	3280	43.3	0
166	3280	43.4	0
166	3280	43.5	0
166	3280	43.6	0
166	3280	43.7	0
166	3280	43.8	0
166	3280	43.9	0
166	3280	44	0
166	3280	44.1	0
166	3280	44.2	0
166	3280	44.3	0
166	3280	44.4	0
166	3280	44.5	0
166	3280	44.6	0
166	3280	44.7	0
166	3280	44.8	0
166	3280	44.9	0
166	3280	45	0
166	3280	45.1	0
166	3280	45.2	0
166	3280	45.3	0
166	3280	45.4	0
166	3280	45.5	0
166	3280	45.6	0
166	3280	45.7	0
166	3280	45.8	0
166	3280	45.9	0
166	3280	46	0
166	3280	46.1	0
166	3280	46.2	0
166	3280	46.3	0
166	3280	46.4	0
166	3280	46.5	0
166	3280	46.6	0
166	3280	46.7	0
166	3280	46.8	0
166	3280	46.9	0
166	3280	47	0
166	3280	47.1	0
166	3280	47.2	0
166	3280	47.3	0
166	3280	47.4	0
166	3280	47.5	0
166	3280	47.6	0
166	3280	47.7	0
166	3280	47.8	0
166	3280	47.9	0
166	3280	48	0
166	3280	48.1	0
166	3280	48.2	0
166	3280	48.3	0
166	3280	48.4	0
166	3280	48.5	0
166	3280	48.6	0
166	3280	48.7	0
166	3280	48.8	0
166	3280	48.9	0
166	3280	49	0
166	3280	49.1	0
166	3280	49.2	0
166	3280	49.3	0
166	3280	49.4	0
166	3280	49.5	0
166	3280	49.6	0
166	3280	49.7	0
166	3280	49.8	0
166	3280	49.9	0
166	3280	50	0
166	3280	50.1	0
166	3280	50.2	0
166	3280	50.3	0
166	3280	50.4	0
166	3280	50.5	0
166	3280	50.6	0
166	3280	50.7	0
166	3280	50.8	0
166	3280	50.9	0
166	3280	51	0
166	3280	51.1	0
166	3280	51.2	0
166	3280	51.3	0
166	3280	51.4	0
166	3280	51.5	0
166	3280	51.6	0
166	3280	51.7	0
166	3280	51.8	0
166	3280	51.9	0
166	3280	52	0
166	3280	52.1	0
166	3280	52.2	0
166	3280	52.3	0
166	3280	52.4	0
166	3280	52.5	0
166	3280	52.6	0
166	3280	52.7	0
166	3280	52.8	0
166	3280	52.9	0
166	3280	53	0
166	3280	53.1	0
166	3280	53.2	0
166	3280	53.3	0
166	3280	53.4	0
166	3280	53.5	0
166	3280	53.6	0
166	3280	53.7	0
166	3280	53.8	0
166	3280	53.9	0
166	3280	54	0
166	3280	54.1	0
166	3280	54.2	0
166	3280	54.3	0
166	3280	54.4	0
166	3280	54.5	0
166	3280	54.6	0
166	3280	54.7	0
166	3280	54.8	0
166	3280	54.9	0
166	3280	55	0
166	3280	55.1	0
166	3280	55.2	0
166	3280	55.3	0
166	3280	55.4	0
166	3280	55.5	0
166	3280	55.6	0
166	3280	55.7	0
166	3280	55.8	0
166	3280	55.9	0
166	3280	56	0
166	3280	56.1	0
166	3280	56.2	0
166	3280	56.3	0
166	3280	56.4	0
166	3280	56.5	0
166	3280	56.6	0
166	3280	56.7	0
166	3280	56.8	0
166	3280	56.9	0
166	3280	57	0
166	3280	57.1	0
166	3280	57.2	0
166	3280	57.3	0
166	3280	57.4	0
166	3280	57.5	0
166	3280	57.6	0
166	3280	57.7	0
166	3280	57.8	0
166	3280	57.9	0
166	3280	58	0
166	3280	58.1	0
166	3280	58.2	0
166	3280	58.3	0
166	3280	58.4	0
166	3280	58.5	0
166	3280	58.6	0
166	3280	58.7	0
166	3280	58.8	0
166	3280	58.9	0
166	3280	59	0
166	3280	59.1	0
166	3280	59.2	0
166	3280	59.3	0
166	3280	59.4	0
166	3280	59.5	0
166	3280	59.6	0
166	3280	59.7	0
166	3280	59.8	0
166	3280	59.9	0
166	3280	60	0
166	3280	60.1	0
166	3280	60.2	0
166	3280	60.3	0
166	3280	60.4	0
166	3280	60.5	0

