file 1094021 1684418855                                         
version 2
run AodvRreqFloodingMitigationScenario-0-20230518-16:07:29-7274
attr configname AodvRreqFloodingMitigationScenario
attr datetime 20230518-16:07:29
attr experiment AodvRreqFloodingMitigationScenario
attr inifile omnetpp.ini
attr iterationvars ""
attr iterationvarsf ""
attr measurement ""
attr network Scenario
attr processid 7274
attr repetition 0
attr replication #0
attr resultdir results
attr runnumber 0
attr seedset 0
param *.manager.moduleType "\"normal_car=networkprojectvanet.flooding.flooding_mitigation.SecureAodvCar *=networkprojectvanet.flooding.flooding_attack.AttackerAodvCar\""
param *.manager.moduleDisplayString "\"normal_car='i=veins/node/car,green;is=vs' *='i=veins/node/car,red;is=vs'\""
param *.manager.moduleName "\"normal_car=normal_car *=attacker_car\""
param *.normal_car[*].routing.antiFloodingTimeout 1s
param *.normal_car[*].routing.antiFloodingLimit 6
param *.manager.moduleType "\"normal_car=networkprojectvanet.veins_inet.AodvCar *=networkprojectvanet.flooding.flooding_attack.AttackerAodvCar\""
param *.manager.moduleDisplayString "\"normal_car='i=veins/node/car;is=vs' *='i=veins/node/car,red;is=vs'\""
param *.manager.moduleName "\"normal_car=normal_car *=attacker_car\""
param *.attacker_car[*].numApps 1
param *.attacker_car[*].app[0].typename "\"UdpSink\""
param *.attacker_car[*].app[0].localPort 5000
param *.attacker_car[*].routing.deletePeriod 5s
param *.attacker_car[*].routing.floodingTimer 100ms
param *.attacker_car[*].routing.floodingStart 18.1s
param *.*_car[*].ipv4.arp.typename "\"GlobalArp\""
param *.normal_car[1].numApps 1
param *.normal_car[1].app[0].typename "\"UdpBasicApp\""
param *.normal_car[1].app[0].destAddresses "\"normal_car[6]\""
param *.normal_car[1].app[0].localPort 5000
param *.normal_car[1].app[0].destPort 5000
param *.normal_car[1].app[0].messageLength 1024B
param *.normal_car[1].app[0].sendInterval 1s
param *.normal_car[1].app[0].startTime 20s
param *.normal_car[1].app[0].packetName "\"UDPData\""
param *.normal_car[*].numApps 1
param *.normal_car[*].app[0].typename "\"UdpSink\""
param *.normal_car[*].app[0].localPort 5000
param *.normal_car[*].routing.deletePeriod 5s
param *.*_car[*].wlan[*].typename "\"AckingWirelessInterface\""
param *.*_car[*].wlan[*].bitrate 2Mbps
param *.*_car[*].wlan[*].mac.headerLength 23B
param *.*_car[*].wlan[*].radio.typename "\"UnitDiskRadio\""
param *.*_car[*].wlan[*].radio.transmitter.headerLength 96b
param *.*_car[*].wlan[*].radio.transmitter.communicationRange 70m
param *.*_car[*].wlan[*].radio.transmitter.interferenceRange 0m
param *.*_car[*].wlan[*].radio.transmitter.detectionRange 0m
param *.*_car[*].wlan[*].radio.receiver.ignoreInterference true
param *.*_car[*].ipv4.configurator.typename "\"HostAutoConfigurator\""
param *.*_car[*].ipv4.configurator.interfaces "\"wlan0\""
param *.*_car[*].ipv4.configurator.mcastGroups "\"224.0.0.1\""
param *.*_car[*].mobility.typename "\"VeinsInetMobility\""
param *.manager.updateInterval 0.1s
param *.manager.launchConfig "xmldoc(\"arcavacatamap.launchd.xml\")"
param *.manager.moduleType "\"normal_car=networkprojectvanet.veins_inet.AodvCar *=networkprojectvanet.veins_inet.AodvCar\""
param *.manager.moduleDisplayString "\"normal_car='i=veins/node/car;is=vs' *='i=veins/node/car;is=vs'\""
param *.manager.moduleName "\"normal_car=normal_car *=normal_car\""
param *.*_car[*].wlan[0].radio.displayCommunicationRange true
param *.visualizer.networkRouteVisualizer.displayRoutes true

vector 0 Scenario.normal_car[0].wlan[0].radio radioMode:vector ETV
attr interpolationmode sample-hold
attr source radioModeChanged
attr title "Radio mode, vector"
vector 1 Scenario.normal_car[0].wlan[0].radio receptionState:vector ETV
attr interpolationmode sample-hold
attr source receptionStateChanged
attr title "Radio reception state, vector"
vector 2 Scenario.normal_car[0].wlan[0].radio transmissionState:vector ETV
attr interpolationmode sample-hold
attr source transmissionStateChanged
attr title "Radio transmission state, vector"
vector 3 Scenario.normal_car[1].wlan[0].radio radioMode:vector ETV
attr interpolationmode sample-hold
attr source radioModeChanged
attr title "Radio mode, vector"
vector 4 Scenario.normal_car[1].wlan[0].radio receptionState:vector ETV
attr interpolationmode sample-hold
attr source receptionStateChanged
attr title "Radio reception state, vector"
vector 5 Scenario.normal_car[1].wlan[0].radio transmissionState:vector ETV
attr interpolationmode sample-hold
attr source transmissionStateChanged
attr title "Radio transmission state, vector"
vector 6 Scenario.attacker_car[2].wlan[0].radio radioMode:vector ETV
attr interpolationmode sample-hold
attr source radioModeChanged
attr title "Radio mode, vector"
vector 7 Scenario.attacker_car[2].wlan[0].radio receptionState:vector ETV
attr interpolationmode sample-hold
attr source receptionStateChanged
attr title "Radio reception state, vector"
vector 8 Scenario.attacker_car[2].wlan[0].radio transmissionState:vector ETV
attr interpolationmode sample-hold
attr source transmissionStateChanged
attr title "Radio transmission state, vector"
vector 9 Scenario.normal_car[3].wlan[0].radio radioMode:vector ETV
attr interpolationmode sample-hold
attr source radioModeChanged
attr title "Radio mode, vector"
vector 10 Scenario.normal_car[3].wlan[0].radio receptionState:vector ETV
attr interpolationmode sample-hold
attr source receptionStateChanged
attr title "Radio reception state, vector"
vector 11 Scenario.normal_car[3].wlan[0].radio transmissionState:vector ETV
attr interpolationmode sample-hold
attr source transmissionStateChanged
attr title "Radio transmission state, vector"
vector 12 Scenario.normal_car[4].wlan[0].radio radioMode:vector ETV
attr interpolationmode sample-hold
attr source radioModeChanged
attr title "Radio mode, vector"
vector 13 Scenario.normal_car[4].wlan[0].radio receptionState:vector ETV
attr interpolationmode sample-hold
attr source receptionStateChanged
attr title "Radio reception state, vector"
vector 14 Scenario.normal_car[4].wlan[0].radio transmissionState:vector ETV
attr interpolationmode sample-hold
attr source transmissionStateChanged
attr title "Radio transmission state, vector"
vector 15 Scenario.normal_car[5].wlan[0].radio radioMode:vector ETV
attr interpolationmode sample-hold
attr source radioModeChanged
attr title "Radio mode, vector"
vector 16 Scenario.normal_car[5].wlan[0].radio receptionState:vector ETV
attr interpolationmode sample-hold
attr source receptionStateChanged
attr title "Radio reception state, vector"
vector 17 Scenario.normal_car[5].wlan[0].radio transmissionState:vector ETV
attr interpolationmode sample-hold
attr source transmissionStateChanged
attr title "Radio transmission state, vector"
vector 18 Scenario.normal_car[6].wlan[0].radio radioMode:vector ETV
attr interpolationmode sample-hold
attr source radioModeChanged
attr title "Radio mode, vector"
vector 19 Scenario.normal_car[6].wlan[0].radio receptionState:vector ETV
attr interpolationmode sample-hold
attr source receptionStateChanged
attr title "Radio reception state, vector"
vector 20 Scenario.normal_car[6].wlan[0].radio transmissionState:vector ETV
attr interpolationmode sample-hold
attr source transmissionStateChanged
attr title "Radio transmission state, vector"
vector 21 Scenario.normal_car[7].wlan[0].radio radioMode:vector ETV
attr interpolationmode sample-hold
attr source radioModeChanged
attr title "Radio mode, vector"
vector 22 Scenario.normal_car[7].wlan[0].radio receptionState:vector ETV
attr interpolationmode sample-hold
attr source receptionStateChanged
attr title "Radio reception state, vector"
vector 23 Scenario.normal_car[7].wlan[0].radio transmissionState:vector ETV
attr interpolationmode sample-hold
attr source transmissionStateChanged
attr title "Radio transmission state, vector"
vector 24 Scenario.normal_car[8].wlan[0].radio radioMode:vector ETV
attr interpolationmode sample-hold
attr source radioModeChanged
attr title "Radio mode, vector"
vector 25 Scenario.normal_car[8].wlan[0].radio receptionState:vector ETV
attr interpolationmode sample-hold
attr source receptionStateChanged
attr title "Radio reception state, vector"
vector 26 Scenario.normal_car[8].wlan[0].radio transmissionState:vector ETV
attr interpolationmode sample-hold
attr source transmissionStateChanged
attr title "Radio transmission state, vector"
vector 27 Scenario.normal_car[9].wlan[0].radio radioMode:vector ETV
attr interpolationmode sample-hold
attr source radioModeChanged
attr title "Radio mode, vector"
vector 28 Scenario.normal_car[9].wlan[0].radio receptionState:vector ETV
attr interpolationmode sample-hold
attr source receptionStateChanged
attr title "Radio reception state, vector"
vector 29 Scenario.normal_car[9].wlan[0].radio transmissionState:vector ETV
attr interpolationmode sample-hold
attr source transmissionStateChanged
attr title "Radio transmission state, vector"
vector 30 Scenario.attacker_car[2].udp packetSent:vector(packetBytes) ETV
attr interpolationmode none
attr source packetSent
attr title "packets sent, vector(packetBytes)"
vector 31 Scenario.attacker_car[2].wlan[0].mac rcvdPkFromHl:vector(packetBytes) ETV
attr interpolationmode none
attr source packetReceivedFromUpper
attr title "packets received from higher layer, vector(packetBytes)"
vector 32 Scenario.attacker_car[2].wlan[0].mac.queue packetPushed:vector(packetBytes) ETV
attr interpolationmode none
attr title "packet pushed, vector(packetBytes)"
vector 33 Scenario.attacker_car[2].wlan[0].mac.queue queueLength:vector ETV
attr interpolationmode sample-hold
attr source "count(packetPushed) - count(packetPopped) - count(packetRemoved) - count(packetDropped)"
attr title "queue length, vector"
vector 34 Scenario.attacker_car[2].wlan[0].mac.queue packetPopped:vector(packetBytes) ETV
attr interpolationmode none
attr title "packet popped, vector(packetBytes)"
vector 35 Scenario.attacker_car[2].wlan[0].mac.queue queueingTime:vector ETV
attr interpolationmode none
attr source queueingTime(packetPopped)
attr title "queueing times, vector"
attr unit s
vector 36 Scenario.attacker_car[2].wlan[0].mac sentDownPk:vector(packetBytes) ETV
attr interpolationmode none
attr source packetSentToLower
attr title "packets sent to lower layer, vector(packetBytes)"
vector 37 Scenario.normal_car[4].wlan[0].mac rcvdPkFromLl:vector(packetBytes) ETV
attr interpolationmode none
attr source packetReceivedFromLower
attr title "packets received from lower layer, vector(packetBytes)"
vector 38 Scenario.normal_car[4].wlan[0].mac passedUpPk:vector(packetBytes) ETV
attr interpolationmode none
attr source packetSentToUpper
attr title "packets passed to higher layer, vector(packetBytes)"
vector 39 Scenario.normal_car[4].udp packetReceived:vector(packetBytes) ETV
attr interpolationmode none
attr source packetReceived
attr title "packets received, vector(packetBytes)"
vector 40 Scenario.normal_car[4].udp passedUpPk:vector(count) ETV
attr interpolationmode none
attr source packetSentToUpper
attr title "packets passed up, vector(count)"
vector 41 Scenario.normal_car[1].wlan[0].mac rcvdPkFromLl:vector(packetBytes) ETV
attr interpolationmode none
attr source packetReceivedFromLower
attr title "packets received from lower layer, vector(packetBytes)"
vector 42 Scenario.normal_car[1].wlan[0].mac passedUpPk:vector(packetBytes) ETV
attr interpolationmode none
attr source packetSentToUpper
attr title "packets passed to higher layer, vector(packetBytes)"
vector 43 Scenario.normal_car[1].udp packetReceived:vector(packetBytes) ETV
attr interpolationmode none
attr source packetReceived
attr title "packets received, vector(packetBytes)"
vector 44 Scenario.normal_car[1].udp passedUpPk:vector(count) ETV
attr interpolationmode none
attr source packetSentToUpper
attr title "packets passed up, vector(count)"
vector 45 Scenario.normal_car[4].udp packetSent:vector(packetBytes) ETV
attr interpolationmode none
attr source packetSent
attr title "packets sent, vector(packetBytes)"
vector 46 Scenario.normal_car[4].wlan[0].mac rcvdPkFromHl:vector(packetBytes) ETV
attr interpolationmode none
attr source packetReceivedFromUpper
attr title "packets received from higher layer, vector(packetBytes)"
vector 47 Scenario.normal_car[4].wlan[0].mac.queue packetPushed:vector(packetBytes) ETV
attr interpolationmode none
attr title "packet pushed, vector(packetBytes)"
vector 48 Scenario.normal_car[4].wlan[0].mac.queue queueLength:vector ETV
attr interpolationmode sample-hold
attr source "count(packetPushed) - count(packetPopped) - count(packetRemoved) - count(packetDropped)"
attr title "queue length, vector"
vector 49 Scenario.normal_car[4].wlan[0].mac.queue packetPopped:vector(packetBytes) ETV
attr interpolationmode none
attr title "packet popped, vector(packetBytes)"
vector 50 Scenario.normal_car[4].wlan[0].mac.queue queueingTime:vector ETV
attr interpolationmode none
attr source queueingTime(packetPopped)
attr title "queueing times, vector"
attr unit s
vector 51 Scenario.normal_car[4].wlan[0].mac sentDownPk:vector(packetBytes) ETV
attr interpolationmode none
attr source packetSentToLower
attr title "packets sent to lower layer, vector(packetBytes)"
vector 52 Scenario.normal_car[6].wlan[0].mac rcvdPkFromLl:vector(packetBytes) ETV
attr interpolationmode none
attr source packetReceivedFromLower
attr title "packets received from lower layer, vector(packetBytes)"
vector 53 Scenario.normal_car[6].wlan[0].mac passedUpPk:vector(packetBytes) ETV
attr interpolationmode none
attr source packetSentToUpper
attr title "packets passed to higher layer, vector(packetBytes)"
vector 54 Scenario.normal_car[6].udp packetReceived:vector(packetBytes) ETV
attr interpolationmode none
attr source packetReceived
attr title "packets received, vector(packetBytes)"
vector 55 Scenario.normal_car[6].udp passedUpPk:vector(count) ETV
attr interpolationmode none
attr source packetSentToUpper
attr title "packets passed up, vector(count)"
vector 56 Scenario.attacker_car[2].wlan[0].mac rcvdPkFromLl:vector(packetBytes) ETV
attr interpolationmode none
attr source packetReceivedFromLower
attr title "packets received from lower layer, vector(packetBytes)"
vector 57 Scenario.attacker_car[2].wlan[0].mac passedUpPk:vector(packetBytes) ETV
attr interpolationmode none
attr source packetSentToUpper
attr title "packets passed to higher layer, vector(packetBytes)"
vector 58 Scenario.attacker_car[2].udp packetReceived:vector(packetBytes) ETV
attr interpolationmode none
attr source packetReceived
attr title "packets received, vector(packetBytes)"
vector 59 Scenario.attacker_car[2].udp passedUpPk:vector(count) ETV
attr interpolationmode none
attr source packetSentToUpper
attr title "packets passed up, vector(count)"
vector 60 Scenario.normal_car[1].udp packetSent:vector(packetBytes) ETV
attr interpolationmode none
attr source packetSent
attr title "packets sent, vector(packetBytes)"
vector 61 Scenario.normal_car[1].wlan[0].mac rcvdPkFromHl:vector(packetBytes) ETV
attr interpolationmode none
attr source packetReceivedFromUpper
attr title "packets received from higher layer, vector(packetBytes)"
vector 62 Scenario.normal_car[1].wlan[0].mac.queue packetPushed:vector(packetBytes) ETV
attr interpolationmode none
attr title "packet pushed, vector(packetBytes)"
vector 63 Scenario.normal_car[1].wlan[0].mac.queue queueLength:vector ETV
attr interpolationmode sample-hold
attr source "count(packetPushed) - count(packetPopped) - count(packetRemoved) - count(packetDropped)"
attr title "queue length, vector"
vector 64 Scenario.normal_car[1].wlan[0].mac.queue packetPopped:vector(packetBytes) ETV
attr interpolationmode none
attr title "packet popped, vector(packetBytes)"
vector 65 Scenario.normal_car[1].wlan[0].mac.queue queueingTime:vector ETV
attr interpolationmode none
attr source queueingTime(packetPopped)
attr title "queueing times, vector"
attr unit s
vector 66 Scenario.normal_car[1].wlan[0].mac sentDownPk:vector(packetBytes) ETV
attr interpolationmode none
attr source packetSentToLower
attr title "packets sent to lower layer, vector(packetBytes)"
vector 67 Scenario.normal_car[6].udp packetSent:vector(packetBytes) ETV
attr interpolationmode none
attr source packetSent
attr title "packets sent, vector(packetBytes)"
vector 68 Scenario.normal_car[6].wlan[0].mac rcvdPkFromHl:vector(packetBytes) ETV
attr interpolationmode none
attr source packetReceivedFromUpper
attr title "packets received from higher layer, vector(packetBytes)"
vector 69 Scenario.normal_car[6].wlan[0].mac.queue packetPushed:vector(packetBytes) ETV
attr interpolationmode none
attr title "packet pushed, vector(packetBytes)"
vector 70 Scenario.normal_car[6].wlan[0].mac.queue queueLength:vector ETV
attr interpolationmode sample-hold
attr source "count(packetPushed) - count(packetPopped) - count(packetRemoved) - count(packetDropped)"
attr title "queue length, vector"
vector 71 Scenario.normal_car[6].wlan[0].mac.queue packetPopped:vector(packetBytes) ETV
attr interpolationmode none
attr title "packet popped, vector(packetBytes)"
vector 72 Scenario.normal_car[6].wlan[0].mac.queue queueingTime:vector ETV
attr interpolationmode none
attr source queueingTime(packetPopped)
attr title "queueing times, vector"
attr unit s
vector 73 Scenario.normal_car[6].wlan[0].mac sentDownPk:vector(packetBytes) ETV
attr interpolationmode none
attr source packetSentToLower
attr title "packets sent to lower layer, vector(packetBytes)"
vector 74 Scenario.normal_car[8].wlan[0].mac rcvdPkFromLl:vector(packetBytes) ETV
attr interpolationmode none
attr source packetReceivedFromLower
attr title "packets received from lower layer, vector(packetBytes)"
vector 75 Scenario.normal_car[8].wlan[0].mac passedUpPk:vector(packetBytes) ETV
attr interpolationmode none
attr source packetSentToUpper
attr title "packets passed to higher layer, vector(packetBytes)"
vector 76 Scenario.normal_car[8].udp packetReceived:vector(packetBytes) ETV
attr interpolationmode none
attr source packetReceived
attr title "packets received, vector(packetBytes)"
vector 77 Scenario.normal_car[8].udp passedUpPk:vector(count) ETV
attr interpolationmode none
attr source packetSentToUpper
attr title "packets passed up, vector(count)"
vector 78 Scenario.normal_car[10].wlan[0].radio radioMode:vector ETV
attr interpolationmode sample-hold
attr source radioModeChanged
attr title "Radio mode, vector"
vector 79 Scenario.normal_car[10].wlan[0].radio receptionState:vector ETV
attr interpolationmode sample-hold
attr source receptionStateChanged
attr title "Radio reception state, vector"
vector 80 Scenario.normal_car[10].wlan[0].radio transmissionState:vector ETV
attr interpolationmode sample-hold
attr source transmissionStateChanged
attr title "Radio transmission state, vector"
vector 81 Scenario.normal_car[11].wlan[0].radio radioMode:vector ETV
attr interpolationmode sample-hold
attr source radioModeChanged
attr title "Radio mode, vector"
vector 82 Scenario.normal_car[11].wlan[0].radio receptionState:vector ETV
attr interpolationmode sample-hold
attr source receptionStateChanged
attr title "Radio reception state, vector"
vector 83 Scenario.normal_car[11].wlan[0].radio transmissionState:vector ETV
attr interpolationmode sample-hold
attr source transmissionStateChanged
attr title "Radio transmission state, vector"
vector 84 Scenario.normal_car[1].app[0] packetSent:vector(packetBytes) ETV
attr interpolationmode none
attr source packetSent
attr title "packets sent, vector(packetBytes)"
vector 85 Scenario.normal_car[8].wlan[0].mac packetDropNotAddressedToUs:vector(packetBytes) ETV
attr interpolationmode none
attr source packetDropReasonIsNotAddressedToUs(packetDropped)
attr title "packet drop: not addressed to us, vector(packetBytes)"
vector 86 Scenario.normal_car[6].wlan[0].mac packetDropNotAddressedToUs:vector(packetBytes) ETV
attr interpolationmode none
attr source packetDropReasonIsNotAddressedToUs(packetDropped)
attr title "packet drop: not addressed to us, vector(packetBytes)"
vector 87 Scenario.normal_car[4].wlan[0].mac packetDropNotAddressedToUs:vector(packetBytes) ETV
attr interpolationmode none
attr source packetDropReasonIsNotAddressedToUs(packetDropped)
attr title "packet drop: not addressed to us, vector(packetBytes)"
vector 88 Scenario.normal_car[1].wlan[0].mac packetDropNotAddressedToUs:vector(packetBytes) ETV
attr interpolationmode none
attr source packetDropReasonIsNotAddressedToUs(packetDropped)
attr title "packet drop: not addressed to us, vector(packetBytes)"
vector 89 Scenario.normal_car[6].app[0] packetReceived:vector(packetBytes) ETV
attr interpolationmode none
attr source packetReceived
attr title "packets received, vector(packetBytes)"
vector 90 Scenario.normal_car[6].app[0] throughput:vector ETV
attr source throughput(packetReceived)
attr title "throughput, vector"
attr unit bps
vector 91 Scenario.normal_car[6].app[0] endToEndDelay:vector ETV
attr interpolationmode none
attr source dataAge(packetReceived)
attr title "end-to-end delay, vector"
attr unit s
vector 92 Scenario.normal_car[6].app[0] rcvdPkSeqNo:vector ETV
attr interpolationmode none
attr source appPkSeqNo(packetReceived)
attr title "received packet sequence number, vector"
vector 93 Scenario.attacker_car[2].wlan[0].mac packetDropNotAddressedToUs:vector(packetBytes) ETV
attr interpolationmode none
attr source packetDropReasonIsNotAddressedToUs(packetDropped)
attr title "packet drop: not addressed to us, vector(packetBytes)"
vector 94 Scenario.normal_car[12].wlan[0].radio radioMode:vector ETV
attr interpolationmode sample-hold
attr source radioModeChanged
attr title "Radio mode, vector"
vector 95 Scenario.normal_car[12].wlan[0].radio receptionState:vector ETV
attr interpolationmode sample-hold
attr source receptionStateChanged
attr title "Radio reception state, vector"
vector 96 Scenario.normal_car[12].wlan[0].radio transmissionState:vector ETV
attr interpolationmode sample-hold
attr source transmissionStateChanged
attr title "Radio transmission state, vector"
vector 97 Scenario.normal_car[13].wlan[0].radio radioMode:vector ETV
attr interpolationmode sample-hold
attr source radioModeChanged
attr title "Radio mode, vector"
vector 98 Scenario.normal_car[13].wlan[0].radio receptionState:vector ETV
attr interpolationmode sample-hold
attr source receptionStateChanged
attr title "Radio reception state, vector"
vector 99 Scenario.normal_car[13].wlan[0].radio transmissionState:vector ETV
attr interpolationmode sample-hold
attr source transmissionStateChanged
attr title "Radio transmission state, vector"
vector 100 Scenario.normal_car[14].wlan[0].radio radioMode:vector ETV
attr interpolationmode sample-hold
attr source radioModeChanged
attr title "Radio mode, vector"
vector 101 Scenario.normal_car[14].wlan[0].radio receptionState:vector ETV
attr interpolationmode sample-hold
attr source receptionStateChanged
attr title "Radio reception state, vector"
vector 102 Scenario.normal_car[14].wlan[0].radio transmissionState:vector ETV
attr interpolationmode sample-hold
attr source transmissionStateChanged
attr title "Radio transmission state, vector"
vector 103 Scenario.normal_car[8].udp packetSent:vector(packetBytes) ETV
attr interpolationmode none
attr source packetSent
attr title "packets sent, vector(packetBytes)"
vector 104 Scenario.normal_car[8].wlan[0].mac rcvdPkFromHl:vector(packetBytes) ETV
attr interpolationmode none
attr source packetReceivedFromUpper
attr title "packets received from higher layer, vector(packetBytes)"
vector 105 Scenario.normal_car[8].wlan[0].mac.queue packetPushed:vector(packetBytes) ETV
attr interpolationmode none
attr title "packet pushed, vector(packetBytes)"
vector 106 Scenario.normal_car[8].wlan[0].mac.queue queueLength:vector ETV
attr interpolationmode sample-hold
attr source "count(packetPushed) - count(packetPopped) - count(packetRemoved) - count(packetDropped)"
attr title "queue length, vector"
vector 107 Scenario.normal_car[8].wlan[0].mac.queue packetPopped:vector(packetBytes) ETV
attr interpolationmode none
attr title "packet popped, vector(packetBytes)"
vector 108 Scenario.normal_car[8].wlan[0].mac.queue queueingTime:vector ETV
attr interpolationmode none
attr source queueingTime(packetPopped)
attr title "queueing times, vector"
attr unit s
vector 109 Scenario.normal_car[8].wlan[0].mac sentDownPk:vector(packetBytes) ETV
attr interpolationmode none
attr source packetSentToLower
attr title "packets sent to lower layer, vector(packetBytes)"
vector 110 Scenario.normal_car[10].wlan[0].mac rcvdPkFromLl:vector(packetBytes) ETV
attr interpolationmode none
attr source packetReceivedFromLower
attr title "packets received from lower layer, vector(packetBytes)"
vector 111 Scenario.normal_car[10].wlan[0].mac passedUpPk:vector(packetBytes) ETV
attr interpolationmode none
attr source packetSentToUpper
attr title "packets passed to higher layer, vector(packetBytes)"
vector 112 Scenario.normal_car[10].udp packetReceived:vector(packetBytes) ETV
attr interpolationmode none
attr source packetReceived
attr title "packets received, vector(packetBytes)"
vector 113 Scenario.normal_car[10].udp passedUpPk:vector(count) ETV
attr interpolationmode none
attr source packetSentToUpper
attr title "packets passed up, vector(count)"
vector 114 Scenario.normal_car[10].udp packetSent:vector(packetBytes) ETV
attr interpolationmode none
attr source packetSent
attr title "packets sent, vector(packetBytes)"
vector 115 Scenario.normal_car[10].wlan[0].mac rcvdPkFromHl:vector(packetBytes) ETV
attr interpolationmode none
attr source packetReceivedFromUpper
attr title "packets received from higher layer, vector(packetBytes)"
vector 116 Scenario.normal_car[10].wlan[0].mac.queue packetPushed:vector(packetBytes) ETV
attr interpolationmode none
attr title "packet pushed, vector(packetBytes)"
vector 117 Scenario.normal_car[10].wlan[0].mac.queue queueLength:vector ETV
attr interpolationmode sample-hold
attr source "count(packetPushed) - count(packetPopped) - count(packetRemoved) - count(packetDropped)"
attr title "queue length, vector"
vector 118 Scenario.normal_car[10].wlan[0].mac.queue packetPopped:vector(packetBytes) ETV
attr interpolationmode none
attr title "packet popped, vector(packetBytes)"
vector 119 Scenario.normal_car[10].wlan[0].mac.queue queueingTime:vector ETV
attr interpolationmode none
attr source queueingTime(packetPopped)
attr title "queueing times, vector"
attr unit s
vector 120 Scenario.normal_car[10].wlan[0].mac sentDownPk:vector(packetBytes) ETV
attr interpolationmode none
attr source packetSentToLower
attr title "packets sent to lower layer, vector(packetBytes)"
vector 121 Scenario.normal_car[13].wlan[0].mac rcvdPkFromLl:vector(packetBytes) ETV
attr interpolationmode none
attr source packetReceivedFromLower
attr title "packets received from lower layer, vector(packetBytes)"
vector 122 Scenario.normal_car[13].wlan[0].mac passedUpPk:vector(packetBytes) ETV
attr interpolationmode none
attr source packetSentToUpper
attr title "packets passed to higher layer, vector(packetBytes)"
vector 123 Scenario.normal_car[13].udp packetReceived:vector(packetBytes) ETV
attr interpolationmode none
attr source packetReceived
attr title "packets received, vector(packetBytes)"
vector 124 Scenario.normal_car[13].udp passedUpPk:vector(count) ETV
attr interpolationmode none
attr source packetSentToUpper
attr title "packets passed up, vector(count)"
vector 125 Scenario.normal_car[13].udp packetSent:vector(packetBytes) ETV
attr interpolationmode none
attr source packetSent
attr title "packets sent, vector(packetBytes)"
vector 126 Scenario.normal_car[13].wlan[0].mac rcvdPkFromHl:vector(packetBytes) ETV
attr interpolationmode none
attr source packetReceivedFromUpper
attr title "packets received from higher layer, vector(packetBytes)"
vector 127 Scenario.normal_car[13].wlan[0].mac.queue packetPushed:vector(packetBytes) ETV
attr interpolationmode none
attr title "packet pushed, vector(packetBytes)"
vector 128 Scenario.normal_car[13].wlan[0].mac.queue queueLength:vector ETV
attr interpolationmode sample-hold
attr source "count(packetPushed) - count(packetPopped) - count(packetRemoved) - count(packetDropped)"
attr title "queue length, vector"
vector 129 Scenario.normal_car[13].wlan[0].mac.queue packetPopped:vector(packetBytes) ETV
attr interpolationmode none
attr title "packet popped, vector(packetBytes)"
vector 130 Scenario.normal_car[13].wlan[0].mac.queue queueingTime:vector ETV
attr interpolationmode none
attr source queueingTime(packetPopped)
attr title "queueing times, vector"
attr unit s
vector 131 Scenario.normal_car[13].wlan[0].mac sentDownPk:vector(packetBytes) ETV
attr interpolationmode none
attr source packetSentToLower
attr title "packets sent to lower layer, vector(packetBytes)"
vector 132 Scenario.normal_car[14].wlan[0].mac rcvdPkFromLl:vector(packetBytes) ETV
attr interpolationmode none
attr source packetReceivedFromLower
attr title "packets received from lower layer, vector(packetBytes)"
vector 133 Scenario.normal_car[14].wlan[0].mac passedUpPk:vector(packetBytes) ETV
attr interpolationmode none
attr source packetSentToUpper
attr title "packets passed to higher layer, vector(packetBytes)"
vector 134 Scenario.normal_car[14].udp packetReceived:vector(packetBytes) ETV
attr interpolationmode none
attr source packetReceived
attr title "packets received, vector(packetBytes)"
vector 135 Scenario.normal_car[14].udp passedUpPk:vector(count) ETV
attr interpolationmode none
attr source packetSentToUpper
attr title "packets passed up, vector(count)"
vector 136 Scenario.normal_car[0].wlan[0].mac rcvdPkFromLl:vector(packetBytes) ETV
attr interpolationmode none
attr source packetReceivedFromLower
attr title "packets received from lower layer, vector(packetBytes)"
vector 137 Scenario.normal_car[0].wlan[0].mac packetDropNotAddressedToUs:vector(packetBytes) ETV
attr interpolationmode none
attr source packetDropReasonIsNotAddressedToUs(packetDropped)
attr title "packet drop: not addressed to us, vector(packetBytes)"
vector 138 Scenario.normal_car[0].wlan[0].mac passedUpPk:vector(packetBytes) ETV
attr interpolationmode none
attr source packetSentToUpper
attr title "packets passed to higher layer, vector(packetBytes)"
vector 139 Scenario.normal_car[0].udp packetReceived:vector(packetBytes) ETV
attr interpolationmode none
attr source packetReceived
attr title "packets received, vector(packetBytes)"
vector 140 Scenario.normal_car[0].udp passedUpPk:vector(count) ETV
attr interpolationmode none
attr source packetSentToUpper
attr title "packets passed up, vector(count)"
vector 141 Scenario.normal_car[0].udp packetSent:vector(packetBytes) ETV
attr interpolationmode none
attr source packetSent
attr title "packets sent, vector(packetBytes)"
vector 142 Scenario.normal_car[0].wlan[0].mac rcvdPkFromHl:vector(packetBytes) ETV
attr interpolationmode none
attr source packetReceivedFromUpper
attr title "packets received from higher layer, vector(packetBytes)"
vector 143 Scenario.normal_car[0].wlan[0].mac.queue packetPushed:vector(packetBytes) ETV
attr interpolationmode none
attr title "packet pushed, vector(packetBytes)"
vector 144 Scenario.normal_car[0].wlan[0].mac.queue queueLength:vector ETV
attr interpolationmode sample-hold
attr source "count(packetPushed) - count(packetPopped) - count(packetRemoved) - count(packetDropped)"
attr title "queue length, vector"
vector 145 Scenario.normal_car[0].wlan[0].mac.queue packetPopped:vector(packetBytes) ETV
attr interpolationmode none
attr title "packet popped, vector(packetBytes)"
vector 146 Scenario.normal_car[0].wlan[0].mac.queue queueingTime:vector ETV
attr interpolationmode none
attr source queueingTime(packetPopped)
attr title "queueing times, vector"
attr unit s
vector 147 Scenario.normal_car[0].wlan[0].mac sentDownPk:vector(packetBytes) ETV
attr interpolationmode none
attr source packetSentToLower
attr title "packets sent to lower layer, vector(packetBytes)"
vector 148 Scenario.normal_car[3].wlan[0].mac rcvdPkFromLl:vector(packetBytes) ETV
attr interpolationmode none
attr source packetReceivedFromLower
attr title "packets received from lower layer, vector(packetBytes)"
vector 149 Scenario.normal_car[3].wlan[0].mac passedUpPk:vector(packetBytes) ETV
attr interpolationmode none
attr source packetSentToUpper
attr title "packets passed to higher layer, vector(packetBytes)"
vector 150 Scenario.normal_car[3].udp packetReceived:vector(packetBytes) ETV
attr interpolationmode none
attr source packetReceived
attr title "packets received, vector(packetBytes)"
vector 151 Scenario.normal_car[3].udp passedUpPk:vector(count) ETV
attr interpolationmode none
attr source packetSentToUpper
attr title "packets passed up, vector(count)"
vector 152 Scenario.normal_car[3].udp packetSent:vector(packetBytes) ETV
attr interpolationmode none
attr source packetSent
attr title "packets sent, vector(packetBytes)"
vector 153 Scenario.normal_car[3].wlan[0].mac rcvdPkFromHl:vector(packetBytes) ETV
attr interpolationmode none
attr source packetReceivedFromUpper
attr title "packets received from higher layer, vector(packetBytes)"
vector 154 Scenario.normal_car[3].wlan[0].mac.queue packetPushed:vector(packetBytes) ETV
attr interpolationmode none
attr title "packet pushed, vector(packetBytes)"
vector 155 Scenario.normal_car[3].wlan[0].mac.queue queueLength:vector ETV
attr interpolationmode sample-hold
attr source "count(packetPushed) - count(packetPopped) - count(packetRemoved) - count(packetDropped)"
attr title "queue length, vector"
vector 156 Scenario.normal_car[3].wlan[0].mac.queue packetPopped:vector(packetBytes) ETV
attr interpolationmode none
attr title "packet popped, vector(packetBytes)"
vector 157 Scenario.normal_car[3].wlan[0].mac.queue queueingTime:vector ETV
attr interpolationmode none
attr source queueingTime(packetPopped)
attr title "queueing times, vector"
attr unit s
vector 158 Scenario.normal_car[3].wlan[0].mac sentDownPk:vector(packetBytes) ETV
attr interpolationmode none
attr source packetSentToLower
attr title "packets sent to lower layer, vector(packetBytes)"
vector 159 Scenario.normal_car[5].wlan[0].mac rcvdPkFromLl:vector(packetBytes) ETV
attr interpolationmode none
attr source packetReceivedFromLower
attr title "packets received from lower layer, vector(packetBytes)"
vector 160 Scenario.normal_car[5].wlan[0].mac passedUpPk:vector(packetBytes) ETV
attr interpolationmode none
attr source packetSentToUpper
attr title "packets passed to higher layer, vector(packetBytes)"
vector 161 Scenario.normal_car[5].udp packetReceived:vector(packetBytes) ETV
attr interpolationmode none
attr source packetReceived
attr title "packets received, vector(packetBytes)"
vector 162 Scenario.normal_car[5].udp passedUpPk:vector(count) ETV
attr interpolationmode none
attr source packetSentToUpper
attr title "packets passed up, vector(count)"
vector 163 Scenario.normal_car[5].udp packetSent:vector(packetBytes) ETV
attr interpolationmode none
attr source packetSent
attr title "packets sent, vector(packetBytes)"
vector 164 Scenario.normal_car[5].wlan[0].mac rcvdPkFromHl:vector(packetBytes) ETV
attr interpolationmode none
attr source packetReceivedFromUpper
attr title "packets received from higher layer, vector(packetBytes)"
vector 165 Scenario.normal_car[5].wlan[0].mac.queue packetPushed:vector(packetBytes) ETV
attr interpolationmode none
attr title "packet pushed, vector(packetBytes)"
vector 166 Scenario.normal_car[5].wlan[0].mac.queue queueLength:vector ETV
attr interpolationmode sample-hold
attr source "count(packetPushed) - count(packetPopped) - count(packetRemoved) - count(packetDropped)"
attr title "queue length, vector"
vector 167 Scenario.normal_car[5].wlan[0].mac.queue packetPopped:vector(packetBytes) ETV
attr interpolationmode none
attr title "packet popped, vector(packetBytes)"
vector 168 Scenario.normal_car[5].wlan[0].mac.queue queueingTime:vector ETV
attr interpolationmode none
attr source queueingTime(packetPopped)
attr title "queueing times, vector"
attr unit s
vector 169 Scenario.normal_car[5].wlan[0].mac sentDownPk:vector(packetBytes) ETV
attr interpolationmode none
attr source packetSentToLower
attr title "packets sent to lower layer, vector(packetBytes)"
vector 170 Scenario.normal_car[7].wlan[0].mac rcvdPkFromLl:vector(packetBytes) ETV
attr interpolationmode none
attr source packetReceivedFromLower
attr title "packets received from lower layer, vector(packetBytes)"
vector 171 Scenario.normal_car[7].wlan[0].mac passedUpPk:vector(packetBytes) ETV
attr interpolationmode none
attr source packetSentToUpper
attr title "packets passed to higher layer, vector(packetBytes)"
vector 172 Scenario.normal_car[7].udp packetReceived:vector(packetBytes) ETV
attr interpolationmode none
attr source packetReceived
attr title "packets received, vector(packetBytes)"
vector 173 Scenario.normal_car[7].udp passedUpPk:vector(count) ETV
attr interpolationmode none
attr source packetSentToUpper
attr title "packets passed up, vector(count)"
vector 174 Scenario.normal_car[7].udp packetSent:vector(packetBytes) ETV
attr interpolationmode none
attr source packetSent
attr title "packets sent, vector(packetBytes)"
vector 175 Scenario.normal_car[7].wlan[0].mac rcvdPkFromHl:vector(packetBytes) ETV
attr interpolationmode none
attr source packetReceivedFromUpper
attr title "packets received from higher layer, vector(packetBytes)"
vector 176 Scenario.normal_car[7].wlan[0].mac.queue packetPushed:vector(packetBytes) ETV
attr interpolationmode none
attr title "packet pushed, vector(packetBytes)"
vector 177 Scenario.normal_car[7].wlan[0].mac.queue queueLength:vector ETV
attr interpolationmode sample-hold
attr source "count(packetPushed) - count(packetPopped) - count(packetRemoved) - count(packetDropped)"
attr title "queue length, vector"
vector 178 Scenario.normal_car[7].wlan[0].mac.queue packetPopped:vector(packetBytes) ETV
attr interpolationmode none
attr title "packet popped, vector(packetBytes)"
vector 179 Scenario.normal_car[7].wlan[0].mac.queue queueingTime:vector ETV
attr interpolationmode none
attr source queueingTime(packetPopped)
attr title "queueing times, vector"
attr unit s
vector 180 Scenario.normal_car[7].wlan[0].mac sentDownPk:vector(packetBytes) ETV
attr interpolationmode none
attr source packetSentToLower
attr title "packets sent to lower layer, vector(packetBytes)"
vector 181 Scenario.normal_car[9].wlan[0].mac rcvdPkFromLl:vector(packetBytes) ETV
attr interpolationmode none
attr source packetReceivedFromLower
attr title "packets received from lower layer, vector(packetBytes)"
vector 182 Scenario.normal_car[9].wlan[0].mac passedUpPk:vector(packetBytes) ETV
attr interpolationmode none
attr source packetSentToUpper
attr title "packets passed to higher layer, vector(packetBytes)"
vector 183 Scenario.normal_car[9].udp packetReceived:vector(packetBytes) ETV
attr interpolationmode none
attr source packetReceived
attr title "packets received, vector(packetBytes)"
vector 184 Scenario.normal_car[9].udp passedUpPk:vector(count) ETV
attr interpolationmode none
attr source packetSentToUpper
attr title "packets passed up, vector(count)"
vector 185 Scenario.normal_car[9].udp packetSent:vector(packetBytes) ETV
attr interpolationmode none
attr source packetSent
attr title "packets sent, vector(packetBytes)"
vector 186 Scenario.normal_car[9].wlan[0].mac rcvdPkFromHl:vector(packetBytes) ETV
attr interpolationmode none
attr source packetReceivedFromUpper
attr title "packets received from higher layer, vector(packetBytes)"
vector 187 Scenario.normal_car[9].wlan[0].mac.queue packetPushed:vector(packetBytes) ETV
attr interpolationmode none
attr title "packet pushed, vector(packetBytes)"
vector 188 Scenario.normal_car[9].wlan[0].mac.queue queueLength:vector ETV
attr interpolationmode sample-hold
attr source "count(packetPushed) - count(packetPopped) - count(packetRemoved) - count(packetDropped)"
attr title "queue length, vector"
vector 189 Scenario.normal_car[9].wlan[0].mac.queue packetPopped:vector(packetBytes) ETV
attr interpolationmode none
attr title "packet popped, vector(packetBytes)"
vector 190 Scenario.normal_car[9].wlan[0].mac.queue queueingTime:vector ETV
attr interpolationmode none
attr source queueingTime(packetPopped)
attr title "queueing times, vector"
attr unit s
vector 191 Scenario.normal_car[9].wlan[0].mac sentDownPk:vector(packetBytes) ETV
attr interpolationmode none
attr source packetSentToLower
attr title "packets sent to lower layer, vector(packetBytes)"
vector 192 Scenario.normal_car[11].wlan[0].mac rcvdPkFromLl:vector(packetBytes) ETV
attr interpolationmode none
attr source packetReceivedFromLower
attr title "packets received from lower layer, vector(packetBytes)"
vector 193 Scenario.normal_car[11].wlan[0].mac passedUpPk:vector(packetBytes) ETV
attr interpolationmode none
attr source packetSentToUpper
attr title "packets passed to higher layer, vector(packetBytes)"
vector 194 Scenario.normal_car[11].udp packetReceived:vector(packetBytes) ETV
attr interpolationmode none
attr source packetReceived
attr title "packets received, vector(packetBytes)"
vector 195 Scenario.normal_car[11].udp passedUpPk:vector(count) ETV
attr interpolationmode none
attr source packetSentToUpper
attr title "packets passed up, vector(count)"
vector 196 Scenario.normal_car[11].udp packetSent:vector(packetBytes) ETV
attr interpolationmode none
attr source packetSent
attr title "packets sent, vector(packetBytes)"
vector 197 Scenario.normal_car[11].wlan[0].mac rcvdPkFromHl:vector(packetBytes) ETV
attr interpolationmode none
attr source packetReceivedFromUpper
attr title "packets received from higher layer, vector(packetBytes)"
vector 198 Scenario.normal_car[11].wlan[0].mac.queue packetPushed:vector(packetBytes) ETV
attr interpolationmode none
attr title "packet pushed, vector(packetBytes)"
vector 199 Scenario.normal_car[11].wlan[0].mac.queue queueLength:vector ETV
attr interpolationmode sample-hold
attr source "count(packetPushed) - count(packetPopped) - count(packetRemoved) - count(packetDropped)"
attr title "queue length, vector"
vector 200 Scenario.normal_car[11].wlan[0].mac.queue packetPopped:vector(packetBytes) ETV
attr interpolationmode none
attr title "packet popped, vector(packetBytes)"
vector 201 Scenario.normal_car[11].wlan[0].mac.queue queueingTime:vector ETV
attr interpolationmode none
attr source queueingTime(packetPopped)
attr title "queueing times, vector"
attr unit s
vector 202 Scenario.normal_car[11].wlan[0].mac sentDownPk:vector(packetBytes) ETV
attr interpolationmode none
attr source packetSentToLower
attr title "packets sent to lower layer, vector(packetBytes)"
vector 203 Scenario.normal_car[12].wlan[0].mac rcvdPkFromLl:vector(packetBytes) ETV
attr interpolationmode none
attr source packetReceivedFromLower
attr title "packets received from lower layer, vector(packetBytes)"
vector 204 Scenario.normal_car[12].wlan[0].mac passedUpPk:vector(packetBytes) ETV
attr interpolationmode none
attr source packetSentToUpper
attr title "packets passed to higher layer, vector(packetBytes)"
vector 205 Scenario.normal_car[12].udp packetReceived:vector(packetBytes) ETV
attr interpolationmode none
attr source packetReceived
attr title "packets received, vector(packetBytes)"
vector 206 Scenario.normal_car[12].udp passedUpPk:vector(count) ETV
attr interpolationmode none
attr source packetSentToUpper
attr title "packets passed up, vector(count)"
vector 207 Scenario.normal_car[12].udp packetSent:vector(packetBytes) ETV
attr interpolationmode none
attr source packetSent
attr title "packets sent, vector(packetBytes)"
vector 208 Scenario.normal_car[12].wlan[0].mac rcvdPkFromHl:vector(packetBytes) ETV
attr interpolationmode none
attr source packetReceivedFromUpper
attr title "packets received from higher layer, vector(packetBytes)"
vector 209 Scenario.normal_car[12].wlan[0].mac.queue packetPushed:vector(packetBytes) ETV
attr interpolationmode none
attr title "packet pushed, vector(packetBytes)"
vector 210 Scenario.normal_car[12].wlan[0].mac.queue queueLength:vector ETV
attr interpolationmode sample-hold
attr source "count(packetPushed) - count(packetPopped) - count(packetRemoved) - count(packetDropped)"
attr title "queue length, vector"
vector 211 Scenario.normal_car[12].wlan[0].mac.queue packetPopped:vector(packetBytes) ETV
attr interpolationmode none
attr title "packet popped, vector(packetBytes)"
vector 212 Scenario.normal_car[12].wlan[0].mac.queue queueingTime:vector ETV
attr interpolationmode none
attr source queueingTime(packetPopped)
attr title "queueing times, vector"
attr unit s
vector 213 Scenario.normal_car[12].wlan[0].mac sentDownPk:vector(packetBytes) ETV
attr interpolationmode none
attr source packetSentToLower
attr title "packets sent to lower layer, vector(packetBytes)"
vector 214 Scenario.normal_car[3].wlan[0].mac packetDropNotAddressedToUs:vector(packetBytes) ETV
attr interpolationmode none
attr source packetDropReasonIsNotAddressedToUs(packetDropped)
attr title "packet drop: not addressed to us, vector(packetBytes)"
vector 215 Scenario.normal_car[5].wlan[0].mac packetDropNotAddressedToUs:vector(packetBytes) ETV
attr interpolationmode none
attr source packetDropReasonIsNotAddressedToUs(packetDropped)
attr title "packet drop: not addressed to us, vector(packetBytes)"
vector 216 Scenario.normal_car[14].udp packetSent:vector(packetBytes) ETV
attr interpolationmode none
attr source packetSent
attr title "packets sent, vector(packetBytes)"
vector 217 Scenario.normal_car[14].wlan[0].mac rcvdPkFromHl:vector(packetBytes) ETV
attr interpolationmode none
attr source packetReceivedFromUpper
attr title "packets received from higher layer, vector(packetBytes)"
vector 218 Scenario.normal_car[14].wlan[0].mac.queue packetPushed:vector(packetBytes) ETV
attr interpolationmode none
attr title "packet pushed, vector(packetBytes)"
vector 219 Scenario.normal_car[14].wlan[0].mac.queue queueLength:vector ETV
attr interpolationmode sample-hold
attr source "count(packetPushed) - count(packetPopped) - count(packetRemoved) - count(packetDropped)"
attr title "queue length, vector"
vector 220 Scenario.normal_car[14].wlan[0].mac.queue packetPopped:vector(packetBytes) ETV
attr interpolationmode none
attr title "packet popped, vector(packetBytes)"
vector 221 Scenario.normal_car[14].wlan[0].mac.queue queueingTime:vector ETV
attr interpolationmode none
attr source queueingTime(packetPopped)
attr title "queueing times, vector"
attr unit s
vector 222 Scenario.normal_car[14].wlan[0].mac sentDownPk:vector(packetBytes) ETV
attr interpolationmode none
attr source packetSentToLower
attr title "packets sent to lower layer, vector(packetBytes)"
vector 223 Scenario.normal_car[7].wlan[0].mac packetDropNotAddressedToUs:vector(packetBytes) ETV
attr interpolationmode none
attr source packetDropReasonIsNotAddressedToUs(packetDropped)
attr title "packet drop: not addressed to us, vector(packetBytes)"
vector 224 Scenario.normal_car[9].wlan[0].mac packetDropNotAddressedToUs:vector(packetBytes) ETV
attr interpolationmode none
attr source packetDropReasonIsNotAddressedToUs(packetDropped)
attr title "packet drop: not addressed to us, vector(packetBytes)"
vector 225 Scenario.normal_car[10].wlan[0].mac packetDropNotAddressedToUs:vector(packetBytes) ETV
attr interpolationmode none
attr source packetDropReasonIsNotAddressedToUs(packetDropped)
attr title "packet drop: not addressed to us, vector(packetBytes)"
vector 226 Scenario.normal_car[11].wlan[0].mac packetDropNotAddressedToUs:vector(packetBytes) ETV
attr interpolationmode none
attr source packetDropReasonIsNotAddressedToUs(packetDropped)
attr title "packet drop: not addressed to us, vector(packetBytes)"
vector 227 Scenario.normal_car[12].wlan[0].mac packetDropNotAddressedToUs:vector(packetBytes) ETV
attr interpolationmode none
attr source packetDropReasonIsNotAddressedToUs(packetDropped)
attr title "packet drop: not addressed to us, vector(packetBytes)"
vector 228 Scenario.normal_car[0].app[0] throughput:vector ETV
attr source throughput(packetReceived)
attr title "throughput, vector"
attr unit bps
vector 229 Scenario.normal_car[1].app[0] throughput:vector ETV
attr source throughput(packetReceived)
attr title "throughput, vector"
attr unit bps
vector 230 Scenario.attacker_car[2].app[0] throughput:vector ETV
attr source throughput(packetReceived)
attr title "throughput, vector"
attr unit bps
vector 231 Scenario.normal_car[3].app[0] throughput:vector ETV
attr source throughput(packetReceived)
attr title "throughput, vector"
attr unit bps
vector 232 Scenario.normal_car[4].app[0] throughput:vector ETV
attr source throughput(packetReceived)
attr title "throughput, vector"
attr unit bps
vector 233 Scenario.normal_car[5].app[0] throughput:vector ETV
attr source throughput(packetReceived)
attr title "throughput, vector"
attr unit bps
vector 234 Scenario.normal_car[7].app[0] throughput:vector ETV
attr source throughput(packetReceived)
attr title "throughput, vector"
attr unit bps
vector 235 Scenario.normal_car[8].app[0] throughput:vector ETV
attr source throughput(packetReceived)
attr title "throughput, vector"
attr unit bps
vector 236 Scenario.normal_car[9].app[0] throughput:vector ETV
attr source throughput(packetReceived)
attr title "throughput, vector"
attr unit bps
vector 237 Scenario.normal_car[10].app[0] throughput:vector ETV
attr source throughput(packetReceived)
attr title "throughput, vector"
attr unit bps
vector 238 Scenario.normal_car[11].app[0] throughput:vector ETV
attr source throughput(packetReceived)
attr title "throughput, vector"
attr unit bps
vector 239 Scenario.normal_car[12].app[0] throughput:vector ETV
attr source throughput(packetReceived)
attr title "throughput, vector"
attr unit bps
vector 240 Scenario.normal_car[13].app[0] throughput:vector ETV
attr source throughput(packetReceived)
attr title "throughput, vector"
attr unit bps
vector 241 Scenario.normal_car[14].app[0] throughput:vector ETV
attr source throughput(packetReceived)
attr title "throughput, vector"
attr unit bps
0	49813 30 2 2 0.1 0.1 3 0 4 4 16
1	49843 12195 2 45507 0.1 45.379027603066 473 1 3 945 2343
2	62038 2226 2 45240 0.1 45.375439920671 87 1 2 130 216
3	64264 30 2 2 0.1 0.1 3 0 4 4 16
4	64294 30432 2 55317 0.1 60.405092473946 1188 1 3 2376 5926
5	94726 4260 2 55063 0.1 60.004348 189 1 2 283 471
6	98986 33 52 52 3.8 3.8 3 0 4 4 16
7	99019 15089 52 55137 3.8 60.013044588311 588 1 3 1176 2922
8	114108 24284 52 55316 3.8 60.405092305122 949 1 2 1423 2371
9	138392 33 58 58 3.9 3.9 3 0 4 4 16
10	138425 12897 58 45508 3.9 45.379027619413 481 1 3 964 2396
11	151322 2520 58 45467 3.9 45.37873041386 95 1 2 142 236
12	153842 39 113 113 7.5 7.5 3 0 4 4 16
13	153881 33684 113 55322 7.5 60.405092515867 1264 1 3 2528 6312
14	187565 4375 113 55131 7.5 60.013044377303 165 1 2 247 411
15	191940 39 119 119 7.6 7.6 3 0 4 4 16
16	191979 12272 119 45513 7.6 45.379027629835 457 1 3 913 2263
17	204251 2853 119 45339 7.6 45.376720297263 107 1 2 160 266
18	207104 42 182 182 11.2 11.2 3 0 4 4 16
19	207146 13693 182 55132 11.2 60.013044537254 514 1 3 1029 2553
20	220839 2678 182 44877 11.2 45.370869776462 101 1 2 151 251
21	223517 42 189 189 11.4 11.4 3 0 4 4 16
22	223559 10881 189 45516 11.4 45.379027731537 406 1 3 811 2015
23	234440 2426 189 45178 11.4 45.37453641095 91 1 2 136 226
24	236866 42 257 257 14.9 14.9 3 0 4 4 16
25	236908 9178 257 45189 14.9 45.374536545658 343 1 3 688 1702
26	246086 2156 257 45027 14.9 45.373086335001 81 1 2 121 201
27	248242 42 266 266 15.1 15.1 3 0 4 4 16
28	248284 9414 266 45194 15.1 45.374536576599 351 1 3 701 1747
29	257698 2270 266 44992 15.1 45.373046927232 85 1 2 127 211
30	259968 12091 334 55298 18.102744067512 60.404744305122 438 28 32 14004 447792
31	272059 13157 336 55300 18.102744067512 60.404744305122 474 48 1052 60636 41024496
32	285216 13157 336 55300 18.102744067512 60.404744305122 474 48 1052 60636 41024496
33	298373 25221 336 55300 18.102744067512 60.404744305122 948 0 2 476 478
34	323594 13156 336 55300 18.102744067512 60.404744305122 474 48 1052 60636 41024496
35	336750 12777 336 55300 18.102744067512 60.404744305122 474 0 0.004256160901 0.027160808364 0.00010419005231666
36	349527 13156 336 55300 18.102744067512 60.404744305122 474 71 1075 71538 44064498
37	362683 17456 349 55323 18.103092239773 60.405092515867 628 71 1075 90036 52973220
38	380139 16797 349 55323 18.103092239773 60.405092515867 605 48 1052 63444 36962384
39	396936 15848 351 55325 18.103092239773 60.405092515867 573 28 36 18320 585856
40	412784 16313 351 55325 18.103092239773 60.405092515867 573 1 573 164451 62875099
41	429097 16301 354 55318 18.103092240989 60.405092473946 587 71 1075 86005 51598955
42	445398 15062 354 55318 18.103092240989 60.405092473946 545 48 52 28320 1471680
43	460460 15062 356 55320 18.103092240989 60.405092473946 545 28 32 17420 556880
44	475522 15499 356 55320 18.103092240989 60.405092473946 545 1 545 148785 54108145
45	491021 1378 366 45280 18.106056462855 45.375829989681 50 28 32 1588 50480
46	492399 2327 368 55102 18.106056462855 60.008696377303 82 48 1052 36252 35548528
47	494726 2327 368 55102 18.106056462855 60.008696377303 82 48 1052 36252 35548528
48	497053 4362 368 55102 18.106056462855 60.008696377303 164 0 1 82 82
49	501415 2327 368 55102 18.106056462855 60.008696377303 82 48 1052 36252 35548528
50	503742 2181 368 55102 18.106056462855 60.008696377303 82 0 0 0 0
51	505923 2327 368 55102 18.106056462855 60.008696377303 82 71 1075 38138 37259498
52	508250 6907 381 55133 18.106404633113 60.013044537254 247 71 1075 56489 45084151
53	515157 6684 381 55133 18.106404633113 60.013044537254 239 48 1052 50424 42597888
54	521841 6684 383 55135 18.106404633113 60.013044537254 239 28 1032 45644 40676528
55	528525 6739 383 55135 18.106404633113 60.013044537254 239 1 239 28680 4579240
56	535264 8032 386 55138 18.106404635116 60.013044588311 285 71 1075 93347 84399101
57	543296 6828 386 55065 18.106404635116 60.004348166295 244 48 1052 48680 40403040
58	550124 5762 388 45308 18.106404635116 45.376162200886 208 28 36 6648 212576
59	555886 5862 388 45308 18.106404635116 45.376162200886 208 1 208 21736 3021304
60	561748 2149 398 55003 18.106668187814 60 94 32 1032 44016 43720800
61	563897 2283 400 55005 18.106668187814 60 94 52 1052 45896 45519040
62	566180 2283 400 55005 18.106668187814 60 94 52 1052 45896 45519040
63	568463 4221 400 55005 18.106668187814 60 188 0 7 136 318
64	572684 2290 400 55005 18.106668187814 60 94 52 1052 45896 45519040
65	574974 2205 400 55005 18.106668187814 60 94 0 0.030437240209 0.121748960736 0.0026469302580654
66	577179 2290 400 55005 18.106668187814 60 94 75 1075 48058 47679982
67	579469 1382 524 44844 18.210655903938 45.370537776462 50 28 36 1568 49312
68	580851 1382 526 44846 18.210655903938 45.370537776462 50 48 56 2568 132032
69	582233 1382 526 44846 18.210655903938 45.370537776462 50 48 56 2568 132032
70	583615 2664 526 44846 18.210655903938 45.370537776462 100 0 1 50 50
71	586279 1382 526 44846 18.210655903938 45.370537776462 50 48 56 2568 132032
72	587661 1332 526 44846 18.210655903938 45.370537776462 50 0 0 0 0
73	588993 1382 526 44846 18.210655903938 45.370537776462 50 71 79 3718 276610
74	590375 4503 539 45190 18.211004037769 45.374536545658 162 71 79 12118 906642
75	594878 4280 539 45190 18.211004037769 45.374536545658 154 48 56 8008 416480
76	599158 4280 541 45192 18.211004037769 45.374536545658 154 28 36 4928 157760
77	603438 4326 541 45192 18.211004037769 45.374536545658 154 1 154 11935 1229305
78	607764 42 988 988 18.7 18.7 3 0 4 4 16
79	607806 7263 988 45515 18.7 45.379027715249 271 1 3 542 1342
80	615069 2102 988 45116 18.7 45.373924641787 79 1 2 118 196
81	617171 45 1031 1031 18.8 18.8 3 0 4 4 16
82	617216 8927 1031 46896 18.8 46.013044564213 333 1 3 665 1657
83	626143 2265 1031 44919 18.8 45.371491033299 85 1 2 127 211
84	628408 686 1527 55000 20 60 41 1024 1024 41984 42991616
85	629094 223 1888 44883 20.332633593568 45.370869928557 8 71 71 568 40328
86	629317 223 1917 45304 20.336970314192 45.376162146679 8 71 71 568 40328
87	629540 659 1958 45562 20.339609885832 45.379943253418 23 71 1075 12677 12772367
88	630199 1239 2011 55098 20.348306175735 60.00869633259 42 1075 1075 45150 48536250
89	631438 1124 2043 55136 20.352654363744 60.013044537254 38 1024 1024 38912 39845888
90	632562 9291 2043 55345 0.1 60.5 605 0 491520 3112960 469762048000
91	641853 1499 2043 55136 20.352654363744 60.013044537254 38 0.008696378265 7.39298776475 32.320136030296 164.0791884308
92	643352 1038 2043 55136 20.352654363744 60.013044537254 38 0 40 777 21511
93	644390 1204 2045 55138 20.352654366269 60.013044588311 41 71 1075 39055 41627705
94	645594 45 3085 3085 22.5 22.5 3 0 4 4 16
95	645639 6714 3085 48068 22.5 48.013044577736 250 1 3 499 1237
96	652353 2155 3085 45065 22.5 45.37354013279 81 1 2 121 201
97	654508 45 3085 3085 22.5 22.5 3 0 4 4 16
98	654553 5655 3085 45473 22.5 45.378730473234 211 1 3 421 1045
99	660208 2091 3085 45506 22.5 45.379027560039 79 1 2 118 196
100	662299 48 5152 5152 26.2 26.2 3 0 4 4 16
101	662347 2459 5152 45514 26.2 45.379027646449 89 1 3 177 439
102	664806 1864 5152 45397 26.2 45.377578550903 67 1 2 100 166
103	666670 1151 6441 44974 28.208599522757 45.372738335001 40 32 32 1280 40960
104	667821 1151 6443 44976 28.208599522757 45.372738335001 40 52 52 2080 108160
105	668972 1151 6443 44976 28.208599522757 45.372738335001 40 52 52 2080 108160
106	670123 2222 6443 44976 28.208599522757 45.372738335001 80 0 1 40 40
107	672345 1151 6443 44976 28.208599522757 45.372738335001 40 52 52 2080 108160
108	673496 1111 6443 44976 28.208599522757 45.372738335001 40 0 0 0 0
109	674607 1151 6443 44976 28.208599522757 45.372738335001 40 75 75 3000 225000
110	675758 3721 6461 45489 28.208947698259 45.37873057252 129 71 79 9655 722737
111	679479 3605 6461 45489 28.208947698259 45.37873057252 125 48 56 6496 337632
112	683084 3605 6463 45491 28.208947698259 45.37873057252 125 28 36 3996 127792
113	686689 3622 6463 45491 28.208947698259 45.37873057252 125 1 125 7875 658875
114	690311 1122 6483 45097 28.212061928725 45.373576641787 39 32 32 1248 39936
115	691433 1122 6485 45099 28.212061928725 45.373576641787 39 52 52 2028 105456
116	692555 1122 6485 45099 28.212061928725 45.373576641787 39 52 52 2028 105456
117	693677 2166 6485 45099 28.212061928725 45.373576641787 78 0 1 39 39
118	695843 1122 6485 45099 28.212061928725 45.373576641787 39 52 52 2028 105456
119	696965 1083 6485 45099 28.212061928725 45.373576641787 39 0 0 0 0
120	698048 1122 6485 45099 28.212061928725 45.373576641787 39 75 75 2925 219375
121	699170 2943 6503 45474 28.212410089748 45.378730473234 102 71 75 7646 573166
122	702113 2943 6503 45474 28.212410089748 45.378730473234 102 48 52 5300 275408
123	705056 2943 6505 45476 28.212410089748 45.378730473234 102 28 32 3260 104208
124	707999 2937 6505 45476 28.212410089748 45.378730473234 102 1 102 5253 358955
125	710936 1116 6526 45448 28.216599814281 45.378679560039 39 32 32 1248 39936
126	712052 1116 6528 45450 28.216599814281 45.378679560039 39 52 52 2028 105456
127	713168 1116 6528 45450 28.216599814281 45.378679560039 39 52 52 2028 105456
128	714284 2154 6528 45450 28.216599814281 45.378679560039 78 0 1 39 39
129	716438 1116 6528 45450 28.216599814281 45.378679560039 39 52 52 2028 105456
130	717554 1077 6528 45450 28.216599814281 45.378679560039 39 0 0 0 0
131	718631 1116 6528 45450 28.216599814281 45.378679560039 39 75 75 2925 219375
132	719747 1237 6546 45479 28.216947914458 45.378730508149 43 75 75 3225 241875
133	720984 1237 6546 45479 28.216947914458 45.378730508149 43 52 52 2236 116272
134	722221 1237 6548 45481 28.216947914458 45.378730508149 43 32 32 1376 44032
135	723458 1228 6548 45481 28.216947914458 45.378730508149 43 1 43 946 27434
136	724686 6560 7866 45484 29.00434815152 45.378730515142 227 71 1075 26997 12772851
137	731246 417 7866 33950 29.00434815152 39.447085940641 14 71 1075 10030 10425830
138	731663 6143 8320 45484 29.804931846349 45.378730515142 213 48 1052 12068 1679216
139	737806 6112 8322 45486 29.804931846349 45.378730515142 212 28 36 6776 216672
140	743918 6216 8322 45486 29.804931846349 45.378730515142 212 1 212 22578 3198550
141	750134 1208 8335 45222 29.805401548879 45.375091920671 42 28 32 1340 42768
142	751342 1239 8337 45224 29.805401548879 45.375091920671 43 48 1052 3232 1219872
143	752581 1239 8337 45224 29.805401548879 45.375091920671 43 48 1052 3232 1219872
144	753820 2388 8337 45224 29.805401548879 45.375091920671 86 0 1 43 43
145	756208 1239 8337 45224 29.805401548879 45.375091920671 43 48 1052 3232 1219872
146	757447 1194 8337 45224 29.805401548879 45.375091920671 43 0 0 0 0
147	758641 1239 8337 45224 29.805401548879 45.375091920671 43 71 1075 4221 1391291
148	759880 6737 8360 45509 29.805749724939 45.379027619413 233 71 1075 25443 10506049
149	766617 6377 8360 45509 29.805749724939 45.379027619413 221 48 1052 13484 2804880
150	772994 6316 8362 45511 29.805749724939 45.379027619413 219 28 36 7000 223872
151	779310 6427 8362 45511 29.805749724939 45.379027619413 219 1 219 24090 3525170
152	785737 1291 8381 45429 29.808629457415 45.37838241386 45 28 32 1436 45840
153	787028 1352 8383 45431 29.808629457415 45.37838241386 47 48 1052 4440 2334688
154	788380 1352 8383 45431 29.808629457415 45.37838241386 47 48 1052 4440 2334688
155	789732 2602 8383 45431 29.808629457415 45.37838241386 94 0 1 47 47
156	792334 1352 8383 45431 29.808629457415 45.37838241386 47 48 1052 4440 2334688
157	793686 1301 8383 45431 29.808629457415 45.37838241386 47 0 0 0 0
158	794987 1352 8383 45431 29.808629457415 45.37838241386 47 71 1075 5521 2563791
159	796339 6342 8401 45469 29.808977626476 45.378730463756 219 71 1075 23405 9279019
160	802681 6188 8401 45469 29.808977626476 45.378730463756 214 48 1052 13108 2784720
161	808869 6126 8403 45471 29.808977626476 45.378730463756 212 28 36 6764 215952
162	814995 6230 8403 45471 29.808977626476 45.378730463756 212 1 212 22578 3198550
163	821225 1468 8423 45321 29.809393188909 45.376372297263 51 28 36 1612 51056
164	822693 1530 8425 45323 29.809393188909 45.376372297263 53 48 1052 4736 2349344
165	824223 1530 8425 45323 29.809393188909 45.376372297263 53 48 1052 4736 2349344
166	825753 2946 8425 45323 29.809393188909 45.376372297263 106 0 1 53 53
167	828699 1530 8425 45323 29.809393188909 45.376372297263 53 48 1052 4736 2349344
168	830229 1473 8425 45323 29.809393188909 45.376372297263 53 0 0 0 0
169	831702 1530 8425 45323 29.809393188909 45.376372297263 53 71 1075 5955 2595237
170	833232 5691 8448 45494 29.809741365707 45.378730584736 197 71 1075 20755 8005301
171	838923 5334 8448 45494 29.809741365707 45.378730584736 185 48 56 9624 500736
172	844257 5334 8450 45496 29.809741365707 45.378730584736 185 28 36 5924 189776
173	849591 5411 8450 45496 29.809741365707 45.378730584736 185 1 185 17205 2127685
174	855002 1296 8507 45160 29.814387846696 45.37418841095 45 28 32 1432 45600
175	856298 1296 8509 45162 29.814387846696 45.37418841095 45 48 52 2332 120880
176	857594 1296 8509 45162 29.814387846696 45.37418841095 45 48 52 2332 120880
177	858890 2502 8509 45162 29.814387846696 45.37418841095 90 0 1 45 45
178	861392 1296 8509 45162 29.814387846696 45.37418841095 45 48 52 2332 120880
179	862688 1263 8509 45162 29.814387846696 45.37418841095 45 0 0.04374917031 0.04374917031 0.0019139899028134
180	863951 1296 8509 45162 29.814387846696 45.37418841095 45 71 75 3367 251957
181	865247 4996 8527 45195 29.814736018545 45.374536576599 173 71 1075 14963 3271405
182	870243 4848 8527 45195 29.814736018545 45.374536576599 168 48 56 8736 454304
183	875091 4848 8529 45197 29.814736018545 45.374536576599 168 28 36 5376 172064
184	879939 4908 8529 45197 29.814736018545 45.374536576599 168 1 168 14196 1594684
185	884847 1212 8551 44955 29.816124611365 45.372698927232 42 32 32 1344 43008
186	886059 1212 8553 44957 29.816124611365 45.372698927232 42 52 52 2184 113568
187	887271 1212 8553 44957 29.816124611365 45.372698927232 42 52 52 2184 113568
188	888483 2340 8553 44957 29.816124611365 45.372698927232 84 0 1 42 42
189	890823 1212 8553 44957 29.816124611365 45.372698927232 42 52 52 2184 113568
190	892035 1170 8553 44957 29.816124611365 45.372698927232 42 0 0 0 0
191	893205 1212 8553 44957 29.816124611365 45.372698927232 42 75 75 3150 236250
192	894417 4748 8571 46897 29.816472772639 46.013044564213 164 71 1075 21292 11271332
193	899165 4411 8571 45077 29.816472772639 45.373540304431 153 52 52 7956 413712
194	903576 4411 8573 45079 29.816472772639 45.373540304431 153 32 32 4896 156672
195	907987 4456 8573 45079 29.816472772639 45.373540304431 153 1 153 11781 1205589
196	912443 1209 8593 44901 29.818065617414 45.371143033299 42 32 32 1344 43008
197	913652 1209 8595 44903 29.818065617414 45.371143033299 42 52 52 2184 113568
198	914861 1209 8595 44903 29.818065617414 45.371143033299 42 52 52 2184 113568
199	916070 2334 8595 44903 29.818065617414 45.371143033299 84 0 1 42 42
200	918404 1209 8595 44903 29.818065617414 45.371143033299 42 52 52 2184 113568
201	919613 1167 8595 44903 29.818065617414 45.371143033299 42 0 0 0 0
202	920780 1209 8595 44903 29.818065617414 45.371143033299 42 75 75 3150 236250
203	921989 3495 8618 48069 29.818413792528 48.013044577736 120 71 1075 21988 15623248
204	925484 3006 8618 46949 29.818413792528 46.101012304612 104 52 52 5408 281216
205	928490 3006 8620 46951 29.818413792528 46.101012304612 104 32 32 3328 106496
206	931496 3002 8620 46951 29.818413792528 46.101012304612 104 1 104 5460 380380
207	934498 1150 8635 45047 29.818460576037 45.37319213279 40 32 32 1280 40960
208	935648 1150 8637 45049 29.818460576037 45.37319213279 40 52 52 2080 108160
209	936798 1150 8637 45049 29.818460576037 45.37319213279 40 52 52 2080 108160
210	937948 2220 8637 45049 29.818460576037 45.37319213279 80 0 1 40 40
211	940168 1150 8637 45049 29.818460576037 45.37319213279 40 52 52 2080 108160
212	941318 1110 8637 45049 29.818460576037 45.37319213279 40 0 0 0 0
213	942428 1150 8637 45049 29.818460576037 45.37319213279 40 75 75 3000 225000
214	943578 360 10825 33944 31.004348144425 39.447085856462 12 71 1075 6876 6963996
215	943938 154 11452 24376 32.004348212641 36.013044490979 5 1075 1075 5375 5778125
216	944092 957 12182 45379 32.128489665455 45.377230550903 33 32 32 1056 33792
217	945049 957 12184 45381 32.128489665455 45.377230550903 33 52 52 1716 89232
218	946006 957 12184 45381 32.128489665455 45.377230550903 33 52 52 1716 89232
219	946963 1848 12184 45381 32.128489665455 45.377230550903 66 0 1 33 33
220	948811 957 12184 45381 32.128489665455 45.377230550903 33 52 52 1716 89232
221	949768 924 12184 45381 32.128489665455 45.377230550903 33 0 0 0 0
222	950692 957 12184 45381 32.128489665455 45.377230550903 33 75 75 2475 185625
223	951649 357 17518 42794 34.00434820154 42.4123455219 12 71 1075 6876 6963996
224	952006 148 24304 44881 36.00434819062 45.370869892654 5 71 1075 2363 2326373
225	952154 116 30435 42790 38.325176402753 42.412345435171 4 71 71 284 20164
226	952270 337 44879 46897 45.370869825856 46.013044564213 11 71 1075 9817 10410707
227	952607 489 44890 48069 45.37086998942 48.013044577736 16 71 1075 14188 15038248
228	953096 10066 55345 55345 0.1 60.5 605 0 0 0 0
229	963162 10066 55345 55345 0.1 60.5 605 0 0 0 0
230	973228 10066 55345 55345 0.1 60.5 605 0 0 0 0
231	983294 10066 55345 55345 0.1 60.5 605 0 0 0 0
232	993360 10066 55345 55345 0.1 60.5 605 0 0 0 0
233	1003426 10066 55345 55345 0.1 60.5 605 0 0 0 0
234	1013492 10066 55345 55345 0.1 60.5 605 0 0 0 0
235	1023558 10066 55345 55345 0.1 60.5 605 0 0 0 0
236	1033624 10066 55345 55345 0.1 60.5 605 0 0 0 0
237	1043690 10066 55345 55345 0.1 60.5 605 0 0 0 0
238	1053756 10066 55345 55345 0.1 60.5 605 0 0 0 0
239	1063822 10066 55345 55345 0.1 60.5 605 0 0 0 0
240	1073888 10066 55345 55345 0.1 60.5 605 0 0 0 0
241	1083954 10066 55345 55345 0.1 60.5 605 0 0 0 0

