version 2
run AodvRreqFloodingAttack2Scenario-0-20230518-16:07:48-7274
attr configname AodvRreqFloodingAttack2Scenario
attr datetime 20230518-16:07:48
attr experiment AodvRreqFloodingAttack2Scenario
attr inifile omnetpp.ini
attr iterationvars ""
attr iterationvarsf ""
attr measurement ""
attr network Scenario
attr processid 7274
attr repetition 0
attr replication #0
attr resultdir results
attr runnumber 0
attr seedset 0
param *.attacker_car[*].routing.floodingTimer 250ms
param *.manager.moduleType "\"normal_car=networkprojectvanet.flooding.flooding_mitigation.SecureAodvCar *=networkprojectvanet.flooding.flooding_attack.AttackerAodvCar\""
param *.manager.moduleDisplayString "\"normal_car='i=veins/node/car,green;is=vs' *='i=veins/node/car,red;is=vs'\""
param *.manager.moduleName "\"normal_car=normal_car *=attacker_car\""
param *.normal_car[*].routing.antiFloodingTimeout 1s
param *.normal_car[*].routing.antiFloodingLimit 6
param *.manager.moduleType "\"normal_car=networkprojectvanet.veins_inet.AodvCar *=networkprojectvanet.flooding.flooding_attack.AttackerAodvCar\""
param *.manager.moduleDisplayString "\"normal_car='i=veins/node/car;is=vs' *='i=veins/node/car,red;is=vs'\""
param *.manager.moduleName "\"normal_car=normal_car *=attacker_car\""
param *.attacker_car[*].numApps 1
param *.attacker_car[*].app[0].typename "\"UdpSink\""
param *.attacker_car[*].app[0].localPort 5000
param *.attacker_car[*].routing.deletePeriod 5s
param *.attacker_car[*].routing.floodingTimer 100ms
param *.attacker_car[*].routing.floodingStart 18.1s
param *.*_car[*].ipv4.arp.typename "\"GlobalArp\""
param *.normal_car[1].numApps 1
param *.normal_car[1].app[0].typename "\"UdpBasicApp\""
param *.normal_car[1].app[0].destAddresses "\"normal_car[6]\""
param *.normal_car[1].app[0].localPort 5000
param *.normal_car[1].app[0].destPort 5000
param *.normal_car[1].app[0].messageLength 1024B
param *.normal_car[1].app[0].sendInterval 1s
param *.normal_car[1].app[0].startTime 20s
param *.normal_car[1].app[0].packetName "\"UDPData\""
param *.normal_car[*].numApps 1
param *.normal_car[*].app[0].typename "\"UdpSink\""
param *.normal_car[*].app[0].localPort 5000
param *.normal_car[*].routing.deletePeriod 5s
param *.*_car[*].wlan[*].typename "\"AckingWirelessInterface\""
param *.*_car[*].wlan[*].bitrate 2Mbps
param *.*_car[*].wlan[*].mac.headerLength 23B
param *.*_car[*].wlan[*].radio.typename "\"UnitDiskRadio\""
param *.*_car[*].wlan[*].radio.transmitter.headerLength 96b
param *.*_car[*].wlan[*].radio.transmitter.communicationRange 70m
param *.*_car[*].wlan[*].radio.transmitter.interferenceRange 0m
param *.*_car[*].wlan[*].radio.transmitter.detectionRange 0m
param *.*_car[*].wlan[*].radio.receiver.ignoreInterference true
param *.*_car[*].ipv4.configurator.typename "\"HostAutoConfigurator\""
param *.*_car[*].ipv4.configurator.interfaces "\"wlan0\""
param *.*_car[*].ipv4.configurator.mcastGroups "\"224.0.0.1\""
param *.*_car[*].mobility.typename "\"VeinsInetMobility\""
param *.manager.updateInterval 0.1s
param *.manager.launchConfig "xmldoc(\"arcavacatamap.launchd.xml\")"
param *.manager.moduleType "\"normal_car=networkprojectvanet.veins_inet.AodvCar *=networkprojectvanet.veins_inet.AodvCar\""
param *.manager.moduleDisplayString "\"normal_car='i=veins/node/car;is=vs' *='i=veins/node/car;is=vs'\""
param *.manager.moduleName "\"normal_car=normal_car *=normal_car\""
param *.*_car[*].wlan[0].radio.displayCommunicationRange true
param *.visualizer.networkRouteVisualizer.displayRoutes true

vector 0 Scenario.normal_car[0].wlan[0].radio radioMode:vector ETV
attr interpolationmode sample-hold
attr source radioModeChanged
attr title "Radio mode, vector"
vector 1 Scenario.normal_car[0].wlan[0].radio receptionState:vector ETV
attr interpolationmode sample-hold
attr source receptionStateChanged
attr title "Radio reception state, vector"
vector 2 Scenario.normal_car[0].wlan[0].radio transmissionState:vector ETV
attr interpolationmode sample-hold
attr source transmissionStateChanged
attr title "Radio transmission state, vector"
vector 3 Scenario.normal_car[1].wlan[0].radio radioMode:vector ETV
attr interpolationmode sample-hold
attr source radioModeChanged
attr title "Radio mode, vector"
vector 4 Scenario.normal_car[1].wlan[0].radio receptionState:vector ETV
attr interpolationmode sample-hold
attr source receptionStateChanged
attr title "Radio reception state, vector"
vector 5 Scenario.normal_car[1].wlan[0].radio transmissionState:vector ETV
attr interpolationmode sample-hold
attr source transmissionStateChanged
attr title "Radio transmission state, vector"
vector 6 Scenario.attacker_car[2].wlan[0].radio radioMode:vector ETV
attr interpolationmode sample-hold
attr source radioModeChanged
attr title "Radio mode, vector"
vector 7 Scenario.attacker_car[2].wlan[0].radio receptionState:vector ETV
attr interpolationmode sample-hold
attr source receptionStateChanged
attr title "Radio reception state, vector"
vector 8 Scenario.attacker_car[2].wlan[0].radio transmissionState:vector ETV
attr interpolationmode sample-hold
attr source transmissionStateChanged
attr title "Radio transmission state, vector"
vector 9 Scenario.normal_car[3].wlan[0].radio radioMode:vector ETV
attr interpolationmode sample-hold
attr source radioModeChanged
attr title "Radio mode, vector"
vector 10 Scenario.normal_car[3].wlan[0].radio receptionState:vector ETV
attr interpolationmode sample-hold
attr source receptionStateChanged
attr title "Radio reception state, vector"
vector 11 Scenario.normal_car[3].wlan[0].radio transmissionState:vector ETV
attr interpolationmode sample-hold
attr source transmissionStateChanged
attr title "Radio transmission state, vector"
vector 12 Scenario.normal_car[4].wlan[0].radio radioMode:vector ETV
attr interpolationmode sample-hold
attr source radioModeChanged
attr title "Radio mode, vector"
vector 13 Scenario.normal_car[4].wlan[0].radio receptionState:vector ETV
attr interpolationmode sample-hold
attr source receptionStateChanged
attr title "Radio reception state, vector"
vector 14 Scenario.normal_car[4].wlan[0].radio transmissionState:vector ETV
attr interpolationmode sample-hold
attr source transmissionStateChanged
attr title "Radio transmission state, vector"
vector 15 Scenario.normal_car[5].wlan[0].radio radioMode:vector ETV
attr interpolationmode sample-hold
attr source radioModeChanged
attr title "Radio mode, vector"
vector 16 Scenario.normal_car[5].wlan[0].radio receptionState:vector ETV
attr interpolationmode sample-hold
attr source receptionStateChanged
attr title "Radio reception state, vector"
vector 17 Scenario.normal_car[5].wlan[0].radio transmissionState:vector ETV
attr interpolationmode sample-hold
attr source transmissionStateChanged
attr title "Radio transmission state, vector"
vector 18 Scenario.normal_car[6].wlan[0].radio radioMode:vector ETV
attr interpolationmode sample-hold
attr source radioModeChanged
attr title "Radio mode, vector"
vector 19 Scenario.normal_car[6].wlan[0].radio receptionState:vector ETV
attr interpolationmode sample-hold
attr source receptionStateChanged
attr title "Radio reception state, vector"
vector 20 Scenario.normal_car[6].wlan[0].radio transmissionState:vector ETV
attr interpolationmode sample-hold
attr source transmissionStateChanged
attr title "Radio transmission state, vector"
vector 21 Scenario.normal_car[7].wlan[0].radio radioMode:vector ETV
attr interpolationmode sample-hold
attr source radioModeChanged
attr title "Radio mode, vector"
vector 22 Scenario.normal_car[7].wlan[0].radio receptionState:vector ETV
attr interpolationmode sample-hold
attr source receptionStateChanged
attr title "Radio reception state, vector"
vector 23 Scenario.normal_car[7].wlan[0].radio transmissionState:vector ETV
attr interpolationmode sample-hold
attr source transmissionStateChanged
attr title "Radio transmission state, vector"
vector 24 Scenario.normal_car[8].wlan[0].radio radioMode:vector ETV
attr interpolationmode sample-hold
attr source radioModeChanged
attr title "Radio mode, vector"
vector 25 Scenario.normal_car[8].wlan[0].radio receptionState:vector ETV
attr interpolationmode sample-hold
attr source receptionStateChanged
attr title "Radio reception state, vector"
vector 26 Scenario.normal_car[8].wlan[0].radio transmissionState:vector ETV
attr interpolationmode sample-hold
attr source transmissionStateChanged
attr title "Radio transmission state, vector"
vector 27 Scenario.normal_car[9].wlan[0].radio radioMode:vector ETV
attr interpolationmode sample-hold
attr source radioModeChanged
attr title "Radio mode, vector"
vector 28 Scenario.normal_car[9].wlan[0].radio receptionState:vector ETV
attr interpolationmode sample-hold
attr source receptionStateChanged
attr title "Radio reception state, vector"
vector 29 Scenario.normal_car[9].wlan[0].radio transmissionState:vector ETV
attr interpolationmode sample-hold
attr source transmissionStateChanged
attr title "Radio transmission state, vector"
vector 30 Scenario.attacker_car[2].udp packetSent:vector(packetBytes) ETV
attr interpolationmode none
attr source packetSent
attr title "packets sent, vector(packetBytes)"
vector 31 Scenario.attacker_car[2].wlan[0].mac rcvdPkFromHl:vector(packetBytes) ETV
attr interpolationmode none
attr source packetReceivedFromUpper
attr title "packets received from higher layer, vector(packetBytes)"
vector 32 Scenario.attacker_car[2].wlan[0].mac.queue packetPushed:vector(packetBytes) ETV
attr interpolationmode none
attr title "packet pushed, vector(packetBytes)"
vector 33 Scenario.attacker_car[2].wlan[0].mac.queue queueLength:vector ETV
attr interpolationmode sample-hold
attr source "count(packetPushed) - count(packetPopped) - count(packetRemoved) - count(packetDropped)"
attr title "queue length, vector"
vector 34 Scenario.attacker_car[2].wlan[0].mac.queue packetPopped:vector(packetBytes) ETV
attr interpolationmode none
attr title "packet popped, vector(packetBytes)"
vector 35 Scenario.attacker_car[2].wlan[0].mac.queue queueingTime:vector ETV
attr interpolationmode none
attr source queueingTime(packetPopped)
attr title "queueing times, vector"
attr unit s
vector 36 Scenario.attacker_car[2].wlan[0].mac sentDownPk:vector(packetBytes) ETV
attr interpolationmode none
attr source packetSentToLower
attr title "packets sent to lower layer, vector(packetBytes)"
vector 37 Scenario.normal_car[4].wlan[0].mac rcvdPkFromLl:vector(packetBytes) ETV
attr interpolationmode none
attr source packetReceivedFromLower
attr title "packets received from lower layer, vector(packetBytes)"
vector 38 Scenario.normal_car[4].wlan[0].mac passedUpPk:vector(packetBytes) ETV
attr interpolationmode none
attr source packetSentToUpper
attr title "packets passed to higher layer, vector(packetBytes)"
vector 39 Scenario.normal_car[4].udp packetReceived:vector(packetBytes) ETV
attr interpolationmode none
attr source packetReceived
attr title "packets received, vector(packetBytes)"
vector 40 Scenario.normal_car[4].udp passedUpPk:vector(count) ETV
attr interpolationmode none
attr source packetSentToUpper
attr title "packets passed up, vector(count)"
vector 41 Scenario.normal_car[1].wlan[0].mac rcvdPkFromLl:vector(packetBytes) ETV
attr interpolationmode none
attr source packetReceivedFromLower
attr title "packets received from lower layer, vector(packetBytes)"
vector 42 Scenario.normal_car[1].wlan[0].mac passedUpPk:vector(packetBytes) ETV
attr interpolationmode none
attr source packetSentToUpper
attr title "packets passed to higher layer, vector(packetBytes)"
vector 43 Scenario.normal_car[1].udp packetReceived:vector(packetBytes) ETV
attr interpolationmode none
attr source packetReceived
attr title "packets received, vector(packetBytes)"
vector 44 Scenario.normal_car[1].udp passedUpPk:vector(count) ETV
attr interpolationmode none
attr source packetSentToUpper
attr title "packets passed up, vector(count)"
vector 45 Scenario.normal_car[4].udp packetSent:vector(packetBytes) ETV
attr interpolationmode none
attr source packetSent
attr title "packets sent, vector(packetBytes)"
vector 46 Scenario.normal_car[4].wlan[0].mac rcvdPkFromHl:vector(packetBytes) ETV
attr interpolationmode none
attr source packetReceivedFromUpper
attr title "packets received from higher layer, vector(packetBytes)"
vector 47 Scenario.normal_car[4].wlan[0].mac.queue packetPushed:vector(packetBytes) ETV
attr interpolationmode none
attr title "packet pushed, vector(packetBytes)"
vector 48 Scenario.normal_car[4].wlan[0].mac.queue queueLength:vector ETV
attr interpolationmode sample-hold
attr source "count(packetPushed) - count(packetPopped) - count(packetRemoved) - count(packetDropped)"
attr title "queue length, vector"
vector 49 Scenario.normal_car[4].wlan[0].mac.queue packetPopped:vector(packetBytes) ETV
attr interpolationmode none
attr title "packet popped, vector(packetBytes)"
vector 50 Scenario.normal_car[4].wlan[0].mac.queue queueingTime:vector ETV
attr interpolationmode none
attr source queueingTime(packetPopped)
attr title "queueing times, vector"
attr unit s
vector 51 Scenario.normal_car[4].wlan[0].mac sentDownPk:vector(packetBytes) ETV
attr interpolationmode none
attr source packetSentToLower
attr title "packets sent to lower layer, vector(packetBytes)"
vector 52 Scenario.normal_car[6].wlan[0].mac rcvdPkFromLl:vector(packetBytes) ETV
attr interpolationmode none
attr source packetReceivedFromLower
attr title "packets received from lower layer, vector(packetBytes)"
vector 53 Scenario.normal_car[6].wlan[0].mac passedUpPk:vector(packetBytes) ETV
attr interpolationmode none
attr source packetSentToUpper
attr title "packets passed to higher layer, vector(packetBytes)"
vector 54 Scenario.normal_car[6].udp packetReceived:vector(packetBytes) ETV
attr interpolationmode none
attr source packetReceived
attr title "packets received, vector(packetBytes)"
vector 55 Scenario.normal_car[6].udp passedUpPk:vector(count) ETV
attr interpolationmode none
attr source packetSentToUpper
attr title "packets passed up, vector(count)"
vector 56 Scenario.attacker_car[2].wlan[0].mac rcvdPkFromLl:vector(packetBytes) ETV
attr interpolationmode none
attr source packetReceivedFromLower
attr title "packets received from lower layer, vector(packetBytes)"
vector 57 Scenario.attacker_car[2].wlan[0].mac passedUpPk:vector(packetBytes) ETV
attr interpolationmode none
attr source packetSentToUpper
attr title "packets passed to higher layer, vector(packetBytes)"
vector 58 Scenario.attacker_car[2].udp packetReceived:vector(packetBytes) ETV
attr interpolationmode none
attr source packetReceived
attr title "packets received, vector(packetBytes)"
vector 59 Scenario.attacker_car[2].udp passedUpPk:vector(count) ETV
attr interpolationmode none
attr source packetSentToUpper
attr title "packets passed up, vector(count)"
vector 60 Scenario.normal_car[1].udp packetSent:vector(packetBytes) ETV
attr interpolationmode none
attr source packetSent
attr title "packets sent, vector(packetBytes)"
vector 61 Scenario.normal_car[1].wlan[0].mac rcvdPkFromHl:vector(packetBytes) ETV
attr interpolationmode none
attr source packetReceivedFromUpper
attr title "packets received from higher layer, vector(packetBytes)"
vector 62 Scenario.normal_car[1].wlan[0].mac.queue packetPushed:vector(packetBytes) ETV
attr interpolationmode none
attr title "packet pushed, vector(packetBytes)"
vector 63 Scenario.normal_car[1].wlan[0].mac.queue queueLength:vector ETV
attr interpolationmode sample-hold
attr source "count(packetPushed) - count(packetPopped) - count(packetRemoved) - count(packetDropped)"
attr title "queue length, vector"
vector 64 Scenario.normal_car[1].wlan[0].mac.queue packetPopped:vector(packetBytes) ETV
attr interpolationmode none
attr title "packet popped, vector(packetBytes)"
vector 65 Scenario.normal_car[1].wlan[0].mac.queue queueingTime:vector ETV
attr interpolationmode none
attr source queueingTime(packetPopped)
attr title "queueing times, vector"
attr unit s
vector 66 Scenario.normal_car[1].wlan[0].mac sentDownPk:vector(packetBytes) ETV
attr interpolationmode none
attr source packetSentToLower
attr title "packets sent to lower layer, vector(packetBytes)"
vector 67 Scenario.normal_car[6].udp packetSent:vector(packetBytes) ETV
attr interpolationmode none
attr source packetSent
attr title "packets sent, vector(packetBytes)"
vector 68 Scenario.normal_car[6].wlan[0].mac rcvdPkFromHl:vector(packetBytes) ETV
attr interpolationmode none
attr source packetReceivedFromUpper
attr title "packets received from higher layer, vector(packetBytes)"
vector 69 Scenario.normal_car[6].wlan[0].mac.queue packetPushed:vector(packetBytes) ETV
attr interpolationmode none
attr title "packet pushed, vector(packetBytes)"
vector 70 Scenario.normal_car[6].wlan[0].mac.queue queueLength:vector ETV
attr interpolationmode sample-hold
attr source "count(packetPushed) - count(packetPopped) - count(packetRemoved) - count(packetDropped)"
attr title "queue length, vector"
vector 71 Scenario.normal_car[6].wlan[0].mac.queue packetPopped:vector(packetBytes) ETV
attr interpolationmode none
attr title "packet popped, vector(packetBytes)"
vector 72 Scenario.normal_car[6].wlan[0].mac.queue queueingTime:vector ETV
attr interpolationmode none
attr source queueingTime(packetPopped)
attr title "queueing times, vector"
attr unit s
vector 73 Scenario.normal_car[6].wlan[0].mac sentDownPk:vector(packetBytes) ETV
attr interpolationmode none
attr source packetSentToLower
attr title "packets sent to lower layer, vector(packetBytes)"
vector 74 Scenario.normal_car[8].wlan[0].mac rcvdPkFromLl:vector(packetBytes) ETV
attr interpolationmode none
attr source packetReceivedFromLower
attr title "packets received from lower layer, vector(packetBytes)"
vector 75 Scenario.normal_car[8].wlan[0].mac passedUpPk:vector(packetBytes) ETV
attr interpolationmode none
attr source packetSentToUpper
attr title "packets passed to higher layer, vector(packetBytes)"
vector 76 Scenario.normal_car[8].udp packetReceived:vector(packetBytes) ETV
attr interpolationmode none
attr source packetReceived
attr title "packets received, vector(packetBytes)"
vector 77 Scenario.normal_car[8].udp passedUpPk:vector(count) ETV
attr interpolationmode none
attr source packetSentToUpper
attr title "packets passed up, vector(count)"
vector 78 Scenario.normal_car[10].wlan[0].radio radioMode:vector ETV
attr interpolationmode sample-hold
attr source radioModeChanged
attr title "Radio mode, vector"
vector 79 Scenario.normal_car[10].wlan[0].radio receptionState:vector ETV
attr interpolationmode sample-hold
attr source receptionStateChanged
attr title "Radio reception state, vector"
vector 80 Scenario.normal_car[10].wlan[0].radio transmissionState:vector ETV
attr interpolationmode sample-hold
attr source transmissionStateChanged
attr title "Radio transmission state, vector"
vector 81 Scenario.normal_car[11].wlan[0].radio radioMode:vector ETV
attr interpolationmode sample-hold
attr source radioModeChanged
attr title "Radio mode, vector"
vector 82 Scenario.normal_car[11].wlan[0].radio receptionState:vector ETV
attr interpolationmode sample-hold
attr source receptionStateChanged
attr title "Radio reception state, vector"
vector 83 Scenario.normal_car[11].wlan[0].radio transmissionState:vector ETV
attr interpolationmode sample-hold
attr source transmissionStateChanged
attr title "Radio transmission state, vector"
vector 84 Scenario.normal_car[10].wlan[0].mac rcvdPkFromLl:vector(packetBytes) ETV
attr interpolationmode none
attr source packetReceivedFromLower
attr title "packets received from lower layer, vector(packetBytes)"
vector 85 Scenario.normal_car[10].wlan[0].mac passedUpPk:vector(packetBytes) ETV
attr interpolationmode none
attr source packetSentToUpper
attr title "packets passed to higher layer, vector(packetBytes)"
vector 86 Scenario.normal_car[10].udp packetReceived:vector(packetBytes) ETV
attr interpolationmode none
attr source packetReceived
attr title "packets received, vector(packetBytes)"
vector 87 Scenario.normal_car[10].udp passedUpPk:vector(count) ETV
attr interpolationmode none
attr source packetSentToUpper
attr title "packets passed up, vector(count)"
vector 88 Scenario.normal_car[1].app[0] packetSent:vector(packetBytes) ETV
attr interpolationmode none
attr source packetSent
attr title "packets sent, vector(packetBytes)"
vector 89 Scenario.normal_car[8].udp packetSent:vector(packetBytes) ETV
attr interpolationmode none
attr source packetSent
attr title "packets sent, vector(packetBytes)"
vector 90 Scenario.normal_car[8].wlan[0].mac rcvdPkFromHl:vector(packetBytes) ETV
attr interpolationmode none
attr source packetReceivedFromUpper
attr title "packets received from higher layer, vector(packetBytes)"
vector 91 Scenario.normal_car[8].wlan[0].mac.queue packetPushed:vector(packetBytes) ETV
attr interpolationmode none
attr title "packet pushed, vector(packetBytes)"
vector 92 Scenario.normal_car[8].wlan[0].mac.queue queueLength:vector ETV
attr interpolationmode sample-hold
attr source "count(packetPushed) - count(packetPopped) - count(packetRemoved) - count(packetDropped)"
attr title "queue length, vector"
vector 93 Scenario.normal_car[8].wlan[0].mac.queue packetPopped:vector(packetBytes) ETV
attr interpolationmode none
attr title "packet popped, vector(packetBytes)"
vector 94 Scenario.normal_car[8].wlan[0].mac.queue queueingTime:vector ETV
attr interpolationmode none
attr source queueingTime(packetPopped)
attr title "queueing times, vector"
attr unit s
vector 95 Scenario.normal_car[8].wlan[0].mac sentDownPk:vector(packetBytes) ETV
attr interpolationmode none
attr source packetSentToLower
attr title "packets sent to lower layer, vector(packetBytes)"
vector 96 Scenario.normal_car[8].wlan[0].mac packetDropNotAddressedToUs:vector(packetBytes) ETV
attr interpolationmode none
attr source packetDropReasonIsNotAddressedToUs(packetDropped)
attr title "packet drop: not addressed to us, vector(packetBytes)"
vector 97 Scenario.normal_car[6].wlan[0].mac packetDropNotAddressedToUs:vector(packetBytes) ETV
attr interpolationmode none
attr source packetDropReasonIsNotAddressedToUs(packetDropped)
attr title "packet drop: not addressed to us, vector(packetBytes)"
vector 98 Scenario.normal_car[4].wlan[0].mac packetDropNotAddressedToUs:vector(packetBytes) ETV
attr interpolationmode none
attr source packetDropReasonIsNotAddressedToUs(packetDropped)
attr title "packet drop: not addressed to us, vector(packetBytes)"
vector 99 Scenario.normal_car[1].wlan[0].mac packetDropNotAddressedToUs:vector(packetBytes) ETV
attr interpolationmode none
attr source packetDropReasonIsNotAddressedToUs(packetDropped)
attr title "packet drop: not addressed to us, vector(packetBytes)"
vector 100 Scenario.normal_car[6].app[0] packetReceived:vector(packetBytes) ETV
attr interpolationmode none
attr source packetReceived
attr title "packets received, vector(packetBytes)"
vector 101 Scenario.normal_car[6].app[0] throughput:vector ETV
attr source throughput(packetReceived)
attr title "throughput, vector"
attr unit bps
vector 102 Scenario.normal_car[6].app[0] endToEndDelay:vector ETV
attr interpolationmode none
attr source dataAge(packetReceived)
attr title "end-to-end delay, vector"
attr unit s
vector 103 Scenario.normal_car[6].app[0] rcvdPkSeqNo:vector ETV
attr interpolationmode none
attr source appPkSeqNo(packetReceived)
attr title "received packet sequence number, vector"
vector 104 Scenario.attacker_car[2].wlan[0].mac packetDropNotAddressedToUs:vector(packetBytes) ETV
attr interpolationmode none
attr source packetDropReasonIsNotAddressedToUs(packetDropped)
attr title "packet drop: not addressed to us, vector(packetBytes)"
vector 105 Scenario.normal_car[12].wlan[0].radio radioMode:vector ETV
attr interpolationmode sample-hold
attr source radioModeChanged
attr title "Radio mode, vector"
vector 106 Scenario.normal_car[12].wlan[0].radio receptionState:vector ETV
attr interpolationmode sample-hold
attr source receptionStateChanged
attr title "Radio reception state, vector"
vector 107 Scenario.normal_car[12].wlan[0].radio transmissionState:vector ETV
attr interpolationmode sample-hold
attr source transmissionStateChanged
attr title "Radio transmission state, vector"
vector 108 Scenario.normal_car[13].wlan[0].radio radioMode:vector ETV
attr interpolationmode sample-hold
attr source radioModeChanged
attr title "Radio mode, vector"
vector 109 Scenario.normal_car[13].wlan[0].radio receptionState:vector ETV
attr interpolationmode sample-hold
attr source receptionStateChanged
attr title "Radio reception state, vector"
vector 110 Scenario.normal_car[13].wlan[0].radio transmissionState:vector ETV
attr interpolationmode sample-hold
attr source transmissionStateChanged
attr title "Radio transmission state, vector"
vector 111 Scenario.normal_car[13].wlan[0].mac rcvdPkFromLl:vector(packetBytes) ETV
attr interpolationmode none
attr source packetReceivedFromLower
attr title "packets received from lower layer, vector(packetBytes)"
vector 112 Scenario.normal_car[13].wlan[0].mac passedUpPk:vector(packetBytes) ETV
attr interpolationmode none
attr source packetSentToUpper
attr title "packets passed to higher layer, vector(packetBytes)"
vector 113 Scenario.normal_car[13].udp packetReceived:vector(packetBytes) ETV
attr interpolationmode none
attr source packetReceived
attr title "packets received, vector(packetBytes)"
vector 114 Scenario.normal_car[13].udp passedUpPk:vector(count) ETV
attr interpolationmode none
attr source packetSentToUpper
attr title "packets passed up, vector(count)"
vector 115 Scenario.normal_car[10].udp packetSent:vector(packetBytes) ETV
attr interpolationmode none
attr source packetSent
attr title "packets sent, vector(packetBytes)"
vector 116 Scenario.normal_car[10].wlan[0].mac rcvdPkFromHl:vector(packetBytes) ETV
attr interpolationmode none
attr source packetReceivedFromUpper
attr title "packets received from higher layer, vector(packetBytes)"
vector 117 Scenario.normal_car[10].wlan[0].mac.queue packetPushed:vector(packetBytes) ETV
attr interpolationmode none
attr title "packet pushed, vector(packetBytes)"
vector 118 Scenario.normal_car[10].wlan[0].mac.queue queueLength:vector ETV
attr interpolationmode sample-hold
attr source "count(packetPushed) - count(packetPopped) - count(packetRemoved) - count(packetDropped)"
attr title "queue length, vector"
vector 119 Scenario.normal_car[10].wlan[0].mac.queue packetPopped:vector(packetBytes) ETV
attr interpolationmode none
attr title "packet popped, vector(packetBytes)"
vector 120 Scenario.normal_car[10].wlan[0].mac.queue queueingTime:vector ETV
attr interpolationmode none
attr source queueingTime(packetPopped)
attr title "queueing times, vector"
attr unit s
vector 121 Scenario.normal_car[10].wlan[0].mac sentDownPk:vector(packetBytes) ETV
attr interpolationmode none
attr source packetSentToLower
attr title "packets sent to lower layer, vector(packetBytes)"
vector 122 Scenario.normal_car[14].wlan[0].radio radioMode:vector ETV
attr interpolationmode sample-hold
attr source radioModeChanged
attr title "Radio mode, vector"
vector 123 Scenario.normal_car[14].wlan[0].radio receptionState:vector ETV
attr interpolationmode sample-hold
attr source receptionStateChanged
attr title "Radio reception state, vector"
vector 124 Scenario.normal_car[14].wlan[0].radio transmissionState:vector ETV
attr interpolationmode sample-hold
attr source transmissionStateChanged
attr title "Radio transmission state, vector"
vector 125 Scenario.normal_car[14].wlan[0].mac rcvdPkFromLl:vector(packetBytes) ETV
attr interpolationmode none
attr source packetReceivedFromLower
attr title "packets received from lower layer, vector(packetBytes)"
vector 126 Scenario.normal_car[14].wlan[0].mac passedUpPk:vector(packetBytes) ETV
attr interpolationmode none
attr source packetSentToUpper
attr title "packets passed to higher layer, vector(packetBytes)"
vector 127 Scenario.normal_car[14].udp packetReceived:vector(packetBytes) ETV
attr interpolationmode none
attr source packetReceived
attr title "packets received, vector(packetBytes)"
vector 128 Scenario.normal_car[14].udp passedUpPk:vector(count) ETV
attr interpolationmode none
attr source packetSentToUpper
attr title "packets passed up, vector(count)"
vector 129 Scenario.normal_car[13].udp packetSent:vector(packetBytes) ETV
attr interpolationmode none
attr source packetSent
attr title "packets sent, vector(packetBytes)"
vector 130 Scenario.normal_car[13].wlan[0].mac rcvdPkFromHl:vector(packetBytes) ETV
attr interpolationmode none
attr source packetReceivedFromUpper
attr title "packets received from higher layer, vector(packetBytes)"
vector 131 Scenario.normal_car[13].wlan[0].mac.queue packetPushed:vector(packetBytes) ETV
attr interpolationmode none
attr title "packet pushed, vector(packetBytes)"
vector 132 Scenario.normal_car[13].wlan[0].mac.queue queueLength:vector ETV
attr interpolationmode sample-hold
attr source "count(packetPushed) - count(packetPopped) - count(packetRemoved) - count(packetDropped)"
attr title "queue length, vector"
vector 133 Scenario.normal_car[13].wlan[0].mac.queue packetPopped:vector(packetBytes) ETV
attr interpolationmode none
attr title "packet popped, vector(packetBytes)"
vector 134 Scenario.normal_car[13].wlan[0].mac.queue queueingTime:vector ETV
attr interpolationmode none
attr source queueingTime(packetPopped)
attr title "queueing times, vector"
attr unit s
vector 135 Scenario.normal_car[13].wlan[0].mac sentDownPk:vector(packetBytes) ETV
attr interpolationmode none
attr source packetSentToLower
attr title "packets sent to lower layer, vector(packetBytes)"
vector 136 Scenario.normal_car[0].wlan[0].mac rcvdPkFromLl:vector(packetBytes) ETV
attr interpolationmode none
attr source packetReceivedFromLower
attr title "packets received from lower layer, vector(packetBytes)"
vector 137 Scenario.normal_car[0].wlan[0].mac passedUpPk:vector(packetBytes) ETV
attr interpolationmode none
attr source packetSentToUpper
attr title "packets passed to higher layer, vector(packetBytes)"
vector 138 Scenario.normal_car[0].udp packetReceived:vector(packetBytes) ETV
attr interpolationmode none
attr source packetReceived
attr title "packets received, vector(packetBytes)"
vector 139 Scenario.normal_car[0].udp passedUpPk:vector(count) ETV
attr interpolationmode none
attr source packetSentToUpper
attr title "packets passed up, vector(count)"
vector 140 Scenario.normal_car[0].udp packetSent:vector(packetBytes) ETV
attr interpolationmode none
attr source packetSent
attr title "packets sent, vector(packetBytes)"
vector 141 Scenario.normal_car[0].wlan[0].mac rcvdPkFromHl:vector(packetBytes) ETV
attr interpolationmode none
attr source packetReceivedFromUpper
attr title "packets received from higher layer, vector(packetBytes)"
vector 142 Scenario.normal_car[0].wlan[0].mac.queue packetPushed:vector(packetBytes) ETV
attr interpolationmode none
attr title "packet pushed, vector(packetBytes)"
vector 143 Scenario.normal_car[0].wlan[0].mac.queue queueLength:vector ETV
attr interpolationmode sample-hold
attr source "count(packetPushed) - count(packetPopped) - count(packetRemoved) - count(packetDropped)"
attr title "queue length, vector"
vector 144 Scenario.normal_car[0].wlan[0].mac.queue packetPopped:vector(packetBytes) ETV
attr interpolationmode none
attr title "packet popped, vector(packetBytes)"
vector 145 Scenario.normal_car[0].wlan[0].mac.queue queueingTime:vector ETV
attr interpolationmode none
attr source queueingTime(packetPopped)
attr title "queueing times, vector"
attr unit s
vector 146 Scenario.normal_car[0].wlan[0].mac sentDownPk:vector(packetBytes) ETV
attr interpolationmode none
attr source packetSentToLower
attr title "packets sent to lower layer, vector(packetBytes)"
vector 147 Scenario.normal_car[3].wlan[0].mac rcvdPkFromLl:vector(packetBytes) ETV
attr interpolationmode none
attr source packetReceivedFromLower
attr title "packets received from lower layer, vector(packetBytes)"
vector 148 Scenario.normal_car[3].wlan[0].mac passedUpPk:vector(packetBytes) ETV
attr interpolationmode none
attr source packetSentToUpper
attr title "packets passed to higher layer, vector(packetBytes)"
vector 149 Scenario.normal_car[3].udp packetReceived:vector(packetBytes) ETV
attr interpolationmode none
attr source packetReceived
attr title "packets received, vector(packetBytes)"
vector 150 Scenario.normal_car[3].udp passedUpPk:vector(count) ETV
attr interpolationmode none
attr source packetSentToUpper
attr title "packets passed up, vector(count)"
vector 151 Scenario.normal_car[3].udp packetSent:vector(packetBytes) ETV
attr interpolationmode none
attr source packetSent
attr title "packets sent, vector(packetBytes)"
vector 152 Scenario.normal_car[3].wlan[0].mac rcvdPkFromHl:vector(packetBytes) ETV
attr interpolationmode none
attr source packetReceivedFromUpper
attr title "packets received from higher layer, vector(packetBytes)"
vector 153 Scenario.normal_car[3].wlan[0].mac.queue packetPushed:vector(packetBytes) ETV
attr interpolationmode none
attr title "packet pushed, vector(packetBytes)"
vector 154 Scenario.normal_car[3].wlan[0].mac.queue queueLength:vector ETV
attr interpolationmode sample-hold
attr source "count(packetPushed) - count(packetPopped) - count(packetRemoved) - count(packetDropped)"
attr title "queue length, vector"
vector 155 Scenario.normal_car[3].wlan[0].mac.queue packetPopped:vector(packetBytes) ETV
attr interpolationmode none
attr title "packet popped, vector(packetBytes)"
vector 156 Scenario.normal_car[3].wlan[0].mac.queue queueingTime:vector ETV
attr interpolationmode none
attr source queueingTime(packetPopped)
attr title "queueing times, vector"
attr unit s
vector 157 Scenario.normal_car[3].wlan[0].mac sentDownPk:vector(packetBytes) ETV
attr interpolationmode none
attr source packetSentToLower
attr title "packets sent to lower layer, vector(packetBytes)"
vector 158 Scenario.normal_car[5].wlan[0].mac rcvdPkFromLl:vector(packetBytes) ETV
attr interpolationmode none
attr source packetReceivedFromLower
attr title "packets received from lower layer, vector(packetBytes)"
vector 159 Scenario.normal_car[5].wlan[0].mac passedUpPk:vector(packetBytes) ETV
attr interpolationmode none
attr source packetSentToUpper
attr title "packets passed to higher layer, vector(packetBytes)"
vector 160 Scenario.normal_car[5].udp packetReceived:vector(packetBytes) ETV
attr interpolationmode none
attr source packetReceived
attr title "packets received, vector(packetBytes)"
vector 161 Scenario.normal_car[5].udp passedUpPk:vector(count) ETV
attr interpolationmode none
attr source packetSentToUpper
attr title "packets passed up, vector(count)"
vector 162 Scenario.normal_car[5].udp packetSent:vector(packetBytes) ETV
attr interpolationmode none
attr source packetSent
attr title "packets sent, vector(packetBytes)"
vector 163 Scenario.normal_car[5].wlan[0].mac rcvdPkFromHl:vector(packetBytes) ETV
attr interpolationmode none
attr source packetReceivedFromUpper
attr title "packets received from higher layer, vector(packetBytes)"
vector 164 Scenario.normal_car[5].wlan[0].mac.queue packetPushed:vector(packetBytes) ETV
attr interpolationmode none
attr title "packet pushed, vector(packetBytes)"
vector 165 Scenario.normal_car[5].wlan[0].mac.queue queueLength:vector ETV
attr interpolationmode sample-hold
attr source "count(packetPushed) - count(packetPopped) - count(packetRemoved) - count(packetDropped)"
attr title "queue length, vector"
vector 166 Scenario.normal_car[5].wlan[0].mac.queue packetPopped:vector(packetBytes) ETV
attr interpolationmode none
attr title "packet popped, vector(packetBytes)"
vector 167 Scenario.normal_car[5].wlan[0].mac.queue queueingTime:vector ETV
attr interpolationmode none
attr source queueingTime(packetPopped)
attr title "queueing times, vector"
attr unit s
vector 168 Scenario.normal_car[5].wlan[0].mac sentDownPk:vector(packetBytes) ETV
attr interpolationmode none
attr source packetSentToLower
attr title "packets sent to lower layer, vector(packetBytes)"
vector 169 Scenario.normal_car[7].wlan[0].mac rcvdPkFromLl:vector(packetBytes) ETV
attr interpolationmode none
attr source packetReceivedFromLower
attr title "packets received from lower layer, vector(packetBytes)"
vector 170 Scenario.normal_car[7].wlan[0].mac passedUpPk:vector(packetBytes) ETV
attr interpolationmode none
attr source packetSentToUpper
attr title "packets passed to higher layer, vector(packetBytes)"
vector 171 Scenario.normal_car[7].udp packetReceived:vector(packetBytes) ETV
attr interpolationmode none
attr source packetReceived
attr title "packets received, vector(packetBytes)"
vector 172 Scenario.normal_car[7].udp passedUpPk:vector(count) ETV
attr interpolationmode none
attr source packetSentToUpper
attr title "packets passed up, vector(count)"
vector 173 Scenario.normal_car[7].udp packetSent:vector(packetBytes) ETV
attr interpolationmode none
attr source packetSent
attr title "packets sent, vector(packetBytes)"
vector 174 Scenario.normal_car[7].wlan[0].mac rcvdPkFromHl:vector(packetBytes) ETV
attr interpolationmode none
attr source packetReceivedFromUpper
attr title "packets received from higher layer, vector(packetBytes)"
vector 175 Scenario.normal_car[7].wlan[0].mac.queue packetPushed:vector(packetBytes) ETV
attr interpolationmode none
attr title "packet pushed, vector(packetBytes)"
vector 176 Scenario.normal_car[7].wlan[0].mac.queue queueLength:vector ETV
attr interpolationmode sample-hold
attr source "count(packetPushed) - count(packetPopped) - count(packetRemoved) - count(packetDropped)"
attr title "queue length, vector"
vector 177 Scenario.normal_car[7].wlan[0].mac.queue packetPopped:vector(packetBytes) ETV
attr interpolationmode none
attr title "packet popped, vector(packetBytes)"
vector 178 Scenario.normal_car[7].wlan[0].mac.queue queueingTime:vector ETV
attr interpolationmode none
attr source queueingTime(packetPopped)
attr title "queueing times, vector"
attr unit s
vector 179 Scenario.normal_car[7].wlan[0].mac sentDownPk:vector(packetBytes) ETV
attr interpolationmode none
attr source packetSentToLower
attr title "packets sent to lower layer, vector(packetBytes)"
vector 180 Scenario.normal_car[9].wlan[0].mac rcvdPkFromLl:vector(packetBytes) ETV
attr interpolationmode none
attr source packetReceivedFromLower
attr title "packets received from lower layer, vector(packetBytes)"
vector 181 Scenario.normal_car[9].wlan[0].mac passedUpPk:vector(packetBytes) ETV
attr interpolationmode none
attr source packetSentToUpper
attr title "packets passed to higher layer, vector(packetBytes)"
vector 182 Scenario.normal_car[9].udp packetReceived:vector(packetBytes) ETV
attr interpolationmode none
attr source packetReceived
attr title "packets received, vector(packetBytes)"
vector 183 Scenario.normal_car[9].udp passedUpPk:vector(count) ETV
attr interpolationmode none
attr source packetSentToUpper
attr title "packets passed up, vector(count)"
vector 184 Scenario.normal_car[9].udp packetSent:vector(packetBytes) ETV
attr interpolationmode none
attr source packetSent
attr title "packets sent, vector(packetBytes)"
vector 185 Scenario.normal_car[9].wlan[0].mac rcvdPkFromHl:vector(packetBytes) ETV
attr interpolationmode none
attr source packetReceivedFromUpper
attr title "packets received from higher layer, vector(packetBytes)"
vector 186 Scenario.normal_car[9].wlan[0].mac.queue packetPushed:vector(packetBytes) ETV
attr interpolationmode none
attr title "packet pushed, vector(packetBytes)"
vector 187 Scenario.normal_car[9].wlan[0].mac.queue queueLength:vector ETV
attr interpolationmode sample-hold
attr source "count(packetPushed) - count(packetPopped) - count(packetRemoved) - count(packetDropped)"
attr title "queue length, vector"
vector 188 Scenario.normal_car[9].wlan[0].mac.queue packetPopped:vector(packetBytes) ETV
attr interpolationmode none
attr title "packet popped, vector(packetBytes)"
vector 189 Scenario.normal_car[9].wlan[0].mac.queue queueingTime:vector ETV
attr interpolationmode none
attr source queueingTime(packetPopped)
attr title "queueing times, vector"
attr unit s
vector 190 Scenario.normal_car[9].wlan[0].mac sentDownPk:vector(packetBytes) ETV
attr interpolationmode none
attr source packetSentToLower
attr title "packets sent to lower layer, vector(packetBytes)"
vector 191 Scenario.normal_car[11].wlan[0].mac rcvdPkFromLl:vector(packetBytes) ETV
attr interpolationmode none
attr source packetReceivedFromLower
attr title "packets received from lower layer, vector(packetBytes)"
vector 192 Scenario.normal_car[11].wlan[0].mac passedUpPk:vector(packetBytes) ETV
attr interpolationmode none
attr source packetSentToUpper
attr title "packets passed to higher layer, vector(packetBytes)"
vector 193 Scenario.normal_car[11].udp packetReceived:vector(packetBytes) ETV
attr interpolationmode none
attr source packetReceived
attr title "packets received, vector(packetBytes)"
vector 194 Scenario.normal_car[11].udp passedUpPk:vector(count) ETV
attr interpolationmode none
attr source packetSentToUpper
attr title "packets passed up, vector(count)"
vector 195 Scenario.normal_car[11].udp packetSent:vector(packetBytes) ETV
attr interpolationmode none
attr source packetSent
attr title "packets sent, vector(packetBytes)"
vector 196 Scenario.normal_car[11].wlan[0].mac rcvdPkFromHl:vector(packetBytes) ETV
attr interpolationmode none
attr source packetReceivedFromUpper
attr title "packets received from higher layer, vector(packetBytes)"
vector 197 Scenario.normal_car[11].wlan[0].mac.queue packetPushed:vector(packetBytes) ETV
attr interpolationmode none
attr title "packet pushed, vector(packetBytes)"
vector 198 Scenario.normal_car[11].wlan[0].mac.queue queueLength:vector ETV
attr interpolationmode sample-hold
attr source "count(packetPushed) - count(packetPopped) - count(packetRemoved) - count(packetDropped)"
attr title "queue length, vector"
vector 199 Scenario.normal_car[11].wlan[0].mac.queue packetPopped:vector(packetBytes) ETV
attr interpolationmode none
attr title "packet popped, vector(packetBytes)"
vector 200 Scenario.normal_car[11].wlan[0].mac.queue queueingTime:vector ETV
attr interpolationmode none
attr source queueingTime(packetPopped)
attr title "queueing times, vector"
attr unit s
vector 201 Scenario.normal_car[11].wlan[0].mac sentDownPk:vector(packetBytes) ETV
attr interpolationmode none
attr source packetSentToLower
attr title "packets sent to lower layer, vector(packetBytes)"
vector 202 Scenario.normal_car[12].wlan[0].mac rcvdPkFromLl:vector(packetBytes) ETV
attr interpolationmode none
attr source packetReceivedFromLower
attr title "packets received from lower layer, vector(packetBytes)"
vector 203 Scenario.normal_car[12].wlan[0].mac passedUpPk:vector(packetBytes) ETV
attr interpolationmode none
attr source packetSentToUpper
attr title "packets passed to higher layer, vector(packetBytes)"
vector 204 Scenario.normal_car[12].udp packetReceived:vector(packetBytes) ETV
attr interpolationmode none
attr source packetReceived
attr title "packets received, vector(packetBytes)"
vector 205 Scenario.normal_car[12].udp passedUpPk:vector(count) ETV
attr interpolationmode none
attr source packetSentToUpper
attr title "packets passed up, vector(count)"
vector 206 Scenario.normal_car[12].udp packetSent:vector(packetBytes) ETV
attr interpolationmode none
attr source packetSent
attr title "packets sent, vector(packetBytes)"
vector 207 Scenario.normal_car[12].wlan[0].mac rcvdPkFromHl:vector(packetBytes) ETV
attr interpolationmode none
attr source packetReceivedFromUpper
attr title "packets received from higher layer, vector(packetBytes)"
vector 208 Scenario.normal_car[12].wlan[0].mac.queue packetPushed:vector(packetBytes) ETV
attr interpolationmode none
attr title "packet pushed, vector(packetBytes)"
vector 209 Scenario.normal_car[12].wlan[0].mac.queue queueLength:vector ETV
attr interpolationmode sample-hold
attr source "count(packetPushed) - count(packetPopped) - count(packetRemoved) - count(packetDropped)"
attr title "queue length, vector"
vector 210 Scenario.normal_car[12].wlan[0].mac.queue packetPopped:vector(packetBytes) ETV
attr interpolationmode none
attr title "packet popped, vector(packetBytes)"
vector 211 Scenario.normal_car[12].wlan[0].mac.queue queueingTime:vector ETV
attr interpolationmode none
attr source queueingTime(packetPopped)
attr title "queueing times, vector"
attr unit s
vector 212 Scenario.normal_car[12].wlan[0].mac sentDownPk:vector(packetBytes) ETV
attr interpolationmode none
attr source packetSentToLower
attr title "packets sent to lower layer, vector(packetBytes)"
vector 213 Scenario.normal_car[0].wlan[0].mac packetDropNotAddressedToUs:vector(packetBytes) ETV
attr interpolationmode none
attr source packetDropReasonIsNotAddressedToUs(packetDropped)
attr title "packet drop: not addressed to us, vector(packetBytes)"
vector 214 Scenario.normal_car[3].wlan[0].mac packetDropNotAddressedToUs:vector(packetBytes) ETV
attr interpolationmode none
attr source packetDropReasonIsNotAddressedToUs(packetDropped)
attr title "packet drop: not addressed to us, vector(packetBytes)"
vector 215 Scenario.normal_car[14].udp packetSent:vector(packetBytes) ETV
attr interpolationmode none
attr source packetSent
attr title "packets sent, vector(packetBytes)"
vector 216 Scenario.normal_car[14].wlan[0].mac rcvdPkFromHl:vector(packetBytes) ETV
attr interpolationmode none
attr source packetReceivedFromUpper
attr title "packets received from higher layer, vector(packetBytes)"
vector 217 Scenario.normal_car[14].wlan[0].mac.queue packetPushed:vector(packetBytes) ETV
attr interpolationmode none
attr title "packet pushed, vector(packetBytes)"
vector 218 Scenario.normal_car[14].wlan[0].mac.queue queueLength:vector ETV
attr interpolationmode sample-hold
attr source "count(packetPushed) - count(packetPopped) - count(packetRemoved) - count(packetDropped)"
attr title "queue length, vector"
vector 219 Scenario.normal_car[14].wlan[0].mac.queue packetPopped:vector(packetBytes) ETV
attr interpolationmode none
attr title "packet popped, vector(packetBytes)"
vector 220 Scenario.normal_car[14].wlan[0].mac.queue queueingTime:vector ETV
attr interpolationmode none
attr source queueingTime(packetPopped)
attr title "queueing times, vector"
attr unit s
vector 221 Scenario.normal_car[14].wlan[0].mac sentDownPk:vector(packetBytes) ETV
attr interpolationmode none
attr source packetSentToLower
attr title "packets sent to lower layer, vector(packetBytes)"
vector 222 Scenario.normal_car[5].wlan[0].mac packetDropNotAddressedToUs:vector(packetBytes) ETV
attr interpolationmode none
attr source packetDropReasonIsNotAddressedToUs(packetDropped)
attr title "packet drop: not addressed to us, vector(packetBytes)"
vector 223 Scenario.normal_car[7].wlan[0].mac packetDropNotAddressedToUs:vector(packetBytes) ETV
attr interpolationmode none
attr source packetDropReasonIsNotAddressedToUs(packetDropped)
attr title "packet drop: not addressed to us, vector(packetBytes)"
vector 224 Scenario.normal_car[9].wlan[0].mac packetDropNotAddressedToUs:vector(packetBytes) ETV
attr interpolationmode none
attr source packetDropReasonIsNotAddressedToUs(packetDropped)
attr title "packet drop: not addressed to us, vector(packetBytes)"
vector 225 Scenario.normal_car[10].wlan[0].mac packetDropNotAddressedToUs:vector(packetBytes) ETV
attr interpolationmode none
attr source packetDropReasonIsNotAddressedToUs(packetDropped)
attr title "packet drop: not addressed to us, vector(packetBytes)"
vector 226 Scenario.normal_car[11].wlan[0].mac packetDropNotAddressedToUs:vector(packetBytes) ETV
attr interpolationmode none
attr source packetDropReasonIsNotAddressedToUs(packetDropped)
attr title "packet drop: not addressed to us, vector(packetBytes)"
vector 227 Scenario.normal_car[12].wlan[0].mac packetDropNotAddressedToUs:vector(packetBytes) ETV
attr interpolationmode none
attr source packetDropReasonIsNotAddressedToUs(packetDropped)
attr title "packet drop: not addressed to us, vector(packetBytes)"
vector 228 Scenario.normal_car[13].wlan[0].mac packetDropNotAddressedToUs:vector(packetBytes) ETV
attr interpolationmode none
attr source packetDropReasonIsNotAddressedToUs(packetDropped)
attr title "packet drop: not addressed to us, vector(packetBytes)"
vector 229 Scenario.normal_car[0].app[0] throughput:vector ETV
attr source throughput(packetReceived)
attr title "throughput, vector"
attr unit bps
vector 230 Scenario.normal_car[1].app[0] throughput:vector ETV
attr source throughput(packetReceived)
attr title "throughput, vector"
attr unit bps
vector 231 Scenario.attacker_car[2].app[0] throughput:vector ETV
attr source throughput(packetReceived)
attr title "throughput, vector"
attr unit bps
vector 232 Scenario.normal_car[3].app[0] throughput:vector ETV
attr source throughput(packetReceived)
attr title "throughput, vector"
attr unit bps
vector 233 Scenario.normal_car[4].app[0] throughput:vector ETV
attr source throughput(packetReceived)
attr title "throughput, vector"
attr unit bps
vector 234 Scenario.normal_car[5].app[0] throughput:vector ETV
attr source throughput(packetReceived)
attr title "throughput, vector"
attr unit bps
vector 235 Scenario.normal_car[7].app[0] throughput:vector ETV
attr source throughput(packetReceived)
attr title "throughput, vector"
attr unit bps
vector 236 Scenario.normal_car[8].app[0] throughput:vector ETV
attr source throughput(packetReceived)
attr title "throughput, vector"
attr unit bps
vector 237 Scenario.normal_car[9].app[0] throughput:vector ETV
attr source throughput(packetReceived)
attr title "throughput, vector"
attr unit bps
vector 238 Scenario.normal_car[10].app[0] throughput:vector ETV
attr source throughput(packetReceived)
attr title "throughput, vector"
attr unit bps
vector 239 Scenario.normal_car[11].app[0] throughput:vector ETV
attr source throughput(packetReceived)
attr title "throughput, vector"
attr unit bps
vector 240 Scenario.normal_car[12].app[0] throughput:vector ETV
attr source throughput(packetReceived)
attr title "throughput, vector"
attr unit bps
vector 241 Scenario.normal_car[13].app[0] throughput:vector ETV
attr source throughput(packetReceived)
attr title "throughput, vector"
attr unit bps
vector 242 Scenario.normal_car[14].app[0] throughput:vector ETV
attr source throughput(packetReceived)
attr title "throughput, vector"
attr unit bps
0	2	0.1	0
0	2	0.1	0
0	2	0.1	4
1	2	0.1	1
1	10270	28.105904546996	3
1	10308	28.106252546996	1
1	10458	28.112988940496	3
1	10477	28.113336940496	1
1	10856	28.356481252417	3
1	10894	28.356829252417	1
1	11108	28.363932365155	3
1	11147	28.364280365155	1
1	11534	28.605157079366	3
1	11595	28.605505079366	1
1	11717	28.611087347938	3
1	11736	28.611435347938	1
1	12136	28.856152511226	3
1	12178	28.856500511226	1
1	12285	28.86028298931	3
1	12304	28.86063098931	1
1	12634	29.00000015152	3
1	12649	29.00434815152	1
1	12851	29.105754810011	3
1	12866	29.106102810011	1
1	13021	29.112721760696	3
1	13040	29.113069760696	1
1	13423	29.356900229572	3
1	13438	29.357248229572	1
1	13678	29.36447878723	3
1	13697	29.36482678723	1
1	13995	29.606729908734	3
1	14010	29.607077908734	1
1	14126	29.608292234624	3
1	14145	29.608640234624	1
1	14564	29.85025317213	3
1	14591	29.85060117213	1
1	14657	29.852428662617	3
1	14672	29.852776662617	1
1	14745	29.855311680812	3
1	14783	29.855659680812	1
1	15182	30.00000005978	3
1	15197	30.00434805978	1
1	15210	30.004348381055	3
1	15235	30.008696381055	1
1	15269	30.102605391589	3
1	15292	30.102953391589	1
1	15317	30.10322508908	3
1	15332	30.10357308908	1
1	15429	30.104470892603	3
1	15490	30.104818892603	1
1	15895	30.354640599379	3
1	15918	30.354988599379	1
1	16073	30.358510678082	3
1	16088	30.358858678082	1
1	16120	30.359143701407	3
1	16158	30.359491701407	1
1	16522	30.604671238737	3
1	16544	30.605019238737	1
1	16681	30.60841470304	3
1	16723	30.60876270304	1
1	16747	30.611386973411	3
1	16766	30.611734973411	1
1	17150	30.851049370982	3
1	17169	30.851397370982	1
1	17218	30.852491154437	3
1	17279	30.852839154437	1
1	17323	30.855524559368	3
1	17346	30.855872559368	1
1	17764	31.000000035772	3
1	17779	31.004348035772	1
1	17791	31.0043483066	3
1	17817	31.0086963066	1
1	17848	31.100282218633	3
1	17863	31.100630218633	1
1	17898	31.102189287512	3
1	17913	31.102537287512	1
1	18080	31.106019273693	3
1	18103	31.106367273693	1
1	18475	31.353719282281	3
1	18490	31.354067282281	1
1	18529	31.356335892345	3
1	18563	31.356683892345	1
1	18703	31.359367020752	3
1	18726	31.359715020752	1
1	19142	31.601316694962	3
1	19157	31.601664694962	1
1	19194	31.601768230038	3
1	19217	31.602116230038	1
1	19289	31.602810972545	3
1	19308	31.603158972545	1
1	19386	31.607107081196	3
1	19428	31.607455081196	1
1	19821	31.850000341962	3
1	19836	31.850348341962	1
1	19872	31.851716270222	3
1	19910	31.852064270222	2
1	19942	31.852255931291	1
1	19961	31.85419166905	3
1	19984	31.85453966905	1
1	20491	32.000000127564	3
1	20507	32.004348127564	1
1	20516	32.004348222215	3
1	20541	32.008696222215	1
1	20576	32.104348213249	3
1	20591	32.104696213249	1
1	20628	32.105763129943	3
1	20670	32.106111129943	2
1	20696	32.106264948797	3
1	20738	32.106612948797	1
1	20768	32.108002492262	3
1	20783	32.108334492262	1
1	21301	32.353231343237	3
1	21316	32.353579343237	1
1	21357	32.354511990565	3
1	21399	32.354859990565	2
1	21425	32.354967796569	3
1	21467	32.355315796569	1
1	21991	32.603584313016	3
1	22006	32.603932313016	1
1	22042	32.605912915727	3
1	22080	32.606260915727	2
1	22117	32.606596399157	1
1	22136	32.606759763825	3
1	22163	32.607107763825	1
1	22662	32.850152294939	3
1	22680	32.850500294939	1
1	22718	32.850963622871	3
1	22745	32.851311622871	1
1	22768	32.854235567185	3
1	22833	32.854583567185	2
1	22854	32.854591891869	1
1	22947	32.855679329864	3
1	22989	32.856027329864	1
1	23348	33.001434793971	3
1	23375	33.001782793971	1
1	23414	33.002284269179	3
1	23482	33.002632269179	2
1	23505	33.002778426992	1
1	23525	33.002986938064	3
1	23552	33.003334938064	1
1	23629	33.100082204866	3
1	23644	33.100430204866	1
1	23680	33.100476641442	3
1	23699	33.100824641442	1
1	23787	33.103780135077	3
1	23814	33.104128135077	1
1	23859	33.104990024696	3
1	23924	33.105338024696	2
1	23956	33.105426097543	1
1	24020	33.107368067885	3
1	24043	33.107732067885	1
1	24417	33.328268104633	3
1	24432	33.328616104633	1
1	24470	33.329173431682	3
1	24497	33.329521431682	1
1	24537	33.329708325773	3
1	24587	33.330056325773	1
1	24605	33.330056522332	3
1	24650	33.330388522332	1
1	24882	33.35474666892	3
1	24897	33.35509466892	1
1	24983	33.359090888742	3
1	25002	33.359438888742	1
1	25035	33.359801766432	3
1	25062	33.360149766432	1
1	25130	33.362591324979	3
1	25153	33.362939324979	1
1	25629	33.600066285598	3
1	25648	33.600414285598	1
1	25678	33.601155152056	3
1	25693	33.601503152056	1
1	25831	33.605285732665	3
1	25877	33.605633732665	2
1	25903	33.605753485257	1
1	26468	33.804541869684	3
1	26495	33.804889869684	1
1	26558	33.806511344905	3
1	26577	33.806859344905	1
1	26654	33.807243864983	3
1	26698	33.807575864983	2
1	26715	33.807810761867	1
1	26837	33.811565407611	3
1	26852	33.811913407611	1
1	26890	33.812381074267	3
1	26923	33.812729074267	1
1	27015	33.813845867899	3
1	27034	33.814193867899	1
1	27088	33.854864716348	3
1	27107	33.855212716348	1
1	27144	33.856930860986	3
1	27190	33.857278860986	1
1	27237	33.859745625818	3
1	27271	33.860093625818	1
1	27396	33.861890184309	3
1	27442	33.862238184309	1
1	27841	34.101626696585	3
1	27860	34.101974696585	1
1	27913	34.102044525034	3
1	27978	34.102392525034	2
1	28012	34.102589895399	1
1	28256	34.106245630584	3
1	28279	34.106593630584	1
1	28577	34.133632815259	3
1	28596	34.133980815259	1
1	28635	34.134566775407	3
1	28662	34.134914775407	1
1	28742	34.13643186076	3
1	28829	34.13676386076	2
1	28876	34.136805896265	1
1	29174	34.236914622439	3
1	29193	34.237246622439	1
1	29280	34.240067081821	3
1	29307	34.240399081821	1
1	29339	34.351280860398	3
1	29358	34.351628860398	1
1	29445	34.352286302621	3
1	29472	34.352634302621	1
1	29496	34.353136909579	3
1	29511	34.353484909579	1
1	29640	34.354795701669	3
1	29721	34.355143701669	1
1	29745	34.355777868359	3
1	29772	34.356125868359	1
1	30285	34.449195711525	3
1	30304	34.449543711525	1
1	30384	34.45017619342	3
1	30429	34.45050819342	1
1	30476	34.452706549999	3
1	30522	34.453054549999	2
1	30542	34.453191951893	1
1	30576	34.453661362285	3
1	30603	34.454009362285	1
1	30773	34.603406984046	3
1	30800	34.603754984046	1
1	30880	34.604500930299	3
1	30922	34.604848930299	1
1	30976	34.605052097626	3
1	30999	34.605400097626	1
1	31050	34.60581678065	3
1	31108	34.60616478065	1
1	31128	34.606692998547	3
1	31143	34.607040998547	1
1	31369	34.610254127206	3
1	31396	34.610602127206	1
1	31559	34.613606991993	3
1	31606	34.613954991993	1
1	31631	34.614656560127	3
1	31686	34.615004560127	2
1	31747	34.615265447592	1
1	31879	34.717527623135	3
1	31910	34.717859623135	1
1	31996	34.854413751629	3
1	32027	34.854761751629	1
1	32054	34.856295802229	3
1	32081	34.856643802229	1
1	32105	34.856834598451	3
1	32120	34.857182598451	1
1	32259	34.858053330437	3
1	32274	34.858401330437	1
1	32407	34.860410806892	3
1	32449	34.860758806892	1
1	32730	35.10071937628	3
1	32761	35.10106737628	1
1	32904	35.103688240695	3
1	32984	35.104036240695	2
1	33063	35.104371375536	1
1	33082	35.104474340736	3
1	33132	35.104822340736	1
1	33470	35.251764820203	3
1	33494	35.252096820203	1
1	33534	35.252225875385	3
1	33600	35.252573875385	2
1	33633	35.252761160535	1
1	33654	35.252761331382	3
1	33700	35.253093331382	1
1	34018	35.353056127169	3
1	34057	35.353404127169	1
1	34274	35.355148769442	3
1	34346	35.355496769442	1
1	34462	35.357669839176	3
1	34527	35.358017839176	2
1	34553	35.358272460297	1
1	35207	35.605132925423	3
1	35257	35.605480925423	1
1	35286	35.605946807629	3
1	35301	35.606294807629	1
1	35436	35.610249607296	3
1	35470	35.610597607296	2
1	35506	35.610931670741	1
1	35952	35.85424484983	3
1	35971	35.85459284983	1
1	36011	35.855018083461	3
1	36030	35.855366083461	1
1	36219	35.857771795232	3
1	36288	35.858119795232	1
1	36344	35.858670520275	3
1	36360	35.859018520275	1
1	36896	36.103176670538	3
1	36915	36.103524670538	1
1	37022	36.105301536214	3
1	37091	36.105649536214	1
1	37146	36.105744261442	3
1	37184	36.106092261442	2
1	37216	36.10623492573	1
1	37757	36.33117134747	3
1	37803	36.33151934747	1
1	37808	36.331519355339	3
1	37884	36.331851355339	1
1	37941	36.335405459077	3
1	37964	36.335753459077	1
1	37995	36.336199040376	3
1	38012	36.336531040376	1
1	38282	36.352970775192	3
1	38469	36.357318775192	1
1	38478	36.357318900312	3
1	38536	36.357666900312	1
1	38590	36.357832340273	3
1	38640	36.358180340273	1
1	38670	36.360232455188	3
1	38723	36.360580455188	2
1	38777	36.360626760844	1
1	39117	36.60287401339	3
1	39171	36.60322201339	1
1	39298	36.604208014104	3
1	39340	36.604556014104	1
1	39396	36.605103150568	3
1	39411	36.605451150568	1
1	39452	36.605463509439	3
1	39494	36.605811509439	2
1	39523	36.60602529803	1
1	39837	36.853034754769	3
1	39860	36.853382754769	1
1	39901	36.853770328	3
1	39928	36.854118328	1
1	40006	36.855834427631	3
1	40021	36.856182427631	1
1	40060	36.856576567851	3
1	40075	36.856924567851	1
1	40254	36.859382774765	3
1	40277	36.859730774765	1
1	40587	37.013044569152	3
1	40616	37.017392569152	1
1	40839	37.107775441069	3
1	40885	37.108123441069	2
1	40930	37.108399207362	1
1	40978	37.109353761451	3
1	40993	37.109701761451	1
1	41086	37.111728627517	3
1	41101	37.112076627517	1
1	41138	37.112288628219	3
1	41161	37.112636628219	1
1	41523	37.356654721327	3
1	41550	37.357002721327	1
1	41668	37.358596231291	3
1	41710	37.358944231291	1
1	41762	37.359238446415	3
1	41777	37.359586446415	1
1	41817	37.360969560385	3
1	41836	37.361317560385	1
1	41885	37.363087627593	3
1	41924	37.363435627593	1
1	42410	37.608544053689	3
1	42448	37.608892053689	2
1	42494	37.60907626124	1
1	42511	37.611562708869	3
1	42534	37.611910708869	1
1	42656	37.613377662927	3
1	42694	37.613725662927	2
1	42720	37.613764886125	1
1	43099	37.85775604082	3
1	43149	37.85810404082	2
1	43165	37.858418696933	1
1	43250	37.860345118917	3
1	43269	37.860693118917	1
1	43389	37.861361204519	3
1	43412	37.861709204519	1
1	43441	37.861867617093	3
1	43456	37.862215617093	1
1	44034	38.108089263529	3
1	44080	38.108437263529	1
1	44111	38.109296738315	3
1	44149	38.109644738315	1
1	44204	38.110211187228	3
1	44227	38.110559187228	1
1	44317	38.112415006069	3
1	44355	38.112763006069	1
1	44654	38.355878345642	3
1	44696	38.356226345642	1
1	44800	38.357058343316	3
1	44842	38.357406343316	2
1	44872	38.357582124335	1
1	44898	38.359003205283	3
1	44913	38.359351205283	1
1	45370	38.606800945543	3
1	45428	38.607148945543	1
1	45618	38.61068857325	3
1	45679	38.61103657325	2
1	45710	38.611042477516	1
1	45758	38.611113680802	3
1	45800	38.611461680802	1
1	46184	38.856604114485	3
1	46230	38.856952114485	1
1	46379	38.857733064861	3
1	46402	38.858081064861	1
1	46435	38.858866188525	3
1	46450	38.859214188525	1
1	46485	38.861429203343	3
1	46519	38.861777203343	1
1	47164	39.112838583419	3
1	47214	39.113186583419	2
1	47234	39.113509390101	1
1	47312	39.114956942938	3
1	47336	39.115304942938	1
1	47369	39.115463942669	3
1	47384	39.115811942669	1
1	47429	39.119750444926	3
1	47453	39.120098444926	1
1	47928	39.356712865312	3
1	47966	39.357060865312	2
1	48002	39.357339907065	1
1	48027	39.358841378433	3
1	48058	39.359189378433	1
1	48081	39.360189150706	3
1	48097	39.360537150706	1
1	48193	39.362204958419	3
1	48217	39.362552958419	1
1	48646	39.611278601388	3
1	48681	39.611626601388	1
1	48703	39.612055433248	3
1	48753	39.612403433248	2
1	48773	39.612497765528	1
1	48799	39.614145918669	3
1	48833	39.614493918669	1
1	48898	39.615051253903	3
1	48921	39.615399253903	1
1	48948	39.616072780522	3
1	48968	39.616420780522	1
1	49329	39.856305759514	3
1	49360	39.856653759514	1
1	49438	39.858362255401	3
1	49457	39.858710255401	1
1	49510	39.859395662877	3
1	49548	39.859743662877	1
1	49592	39.859745440451	3
1	49665	39.860093440451	2
1	49680	39.860196909175	1
1	49728	39.864140077449	3
1	49751	39.864488077449	1
1	50431	40.107161208383	3
1	50489	40.107509208383	1
1	50508	40.107956689484	3
1	50527	40.108304689484	1
1	50570	40.108981449447	3
1	50643	40.109329449447	2
1	50700	40.109662979649	1
1	50760	40.110334487766	3
1	50814	40.110682487766	1
1	51057	40.324610205104	3
1	51084	40.324942205104	1
1	51123	40.325658946391	3
1	51185	40.326006946391	1
1	51665	40.35759120428	3
1	51700	40.35793920428	1
1	51719	40.357952726004	3
1	51738	40.358300726004	1
1	51781	40.358714762559	3
1	51816	40.359062762559	1
1	51897	40.359883549855	3
1	51916	40.360231549855	1
1	51955	40.360575302302	3
1	51974	40.360923302302	1
1	52009	40.36153679225	3
1	52025	40.36188479225	1
1	52223	40.433589431469	3
1	52261	40.433921431469	1
1	52410	40.605927979581	3
1	52445	40.606275979581	1
1	52760	40.609318769748	3
1	52798	40.609666769748	2
1	52833	40.609701443865	3
1	52894	40.610049443865	1
1	52949	40.610344379893	3
1	52972	40.610692379893	1
1	53448	40.81392216179	3
1	53479	40.81427016179	1
1	53509	40.814724596163	3
1	53540	40.815072596163	1
1	53624	40.816575198451	3
1	53662	40.816923198451	1
1	53782	40.817768397995	3
1	53838	40.818116397995	1
1	53909	40.818404348312	3
1	53962	40.818752348312	1
1	54397	40.861677346852	3
1	54447	40.862025346852	2
1	54477	40.862215820028	1
1	54540	40.863503508294	3
1	54559	40.863851508294	1
1	54597	40.863922192659	3
1	54612	40.864270192659	1
1	54708	40.866827770602	3
1	54727	40.867175770602	1
1	55409	41.107300664296	3
1	55444	41.107648664296	1
1	55488	41.1078310466	3
1	55538	41.1081790466	1
1	55675	41.110462631379	3
1	55694	41.110810631379	1
1	55728	41.11170080417	3
1	55743	41.11204880417	1
1	55786	41.112710992664	3
1	55801	41.113058992664	1
1	56645	41.357911856531	3
1	56680	41.358259856531	1
1	56755	41.35898451267	3
1	56782	41.35933251267	1
1	56814	41.359496850309	3
1	56829	41.359844850309	1
1	56872	41.360976876096	3
1	56888	41.361324876096	1
1	56967	41.362652361028	3
1	56986	41.363000361028	1
1	57531	41.607824528582	3
1	57612	41.608172528582	2
1	57638	41.608385659771	1
1	57676	41.609988607684	3
1	57730	41.610336607684	1
1	57755	41.610787587869	3
1	57793	41.611135587869	2
1	57823	41.611165230362	1
1	57852	41.615033022561	3
1	57871	41.615381022561	1
1	58972	41.859262543271	3
1	59034	41.859610543271	1
1	59060	41.860104523318	3
1	59091	41.860452523318	1
1	59118	41.860802715161	3
1	59152	41.861150715161	2
1	59192	41.861378561578	1
1	59214	41.861626638828	3
1	59229	41.861974638828	1
1	59331	41.865604296549	3
1	59351	41.865952296549	1
1	59872	42.10772122155	3
1	59899	42.10806922155	1
1	59932	42.108553254682	3
1	59951	42.108901254682	1
1	60039	42.109786263962	3
1	60092	42.110134263962	2
1	60163	42.110365932184	1
1	60237	42.113396114645	3
1	60256	42.113744114645	1
1	60703	42.360870287105	3
1	60738	42.361218287105	1
1	60763	42.361351529074	3
1	60790	42.361699529074	1
1	60843	42.364578566839	3
1	60916	42.364926566839	2
1	60940	42.365173321757	1
1	60973	42.365906485809	3
1	60992	42.366254485809	1
1	61029	42.368819840543	3
1	61049	42.369167840543	1
1	61386	42.609091438255	3
1	61440	42.609439438255	2
1	61462	42.609752685888	3
1	61515	42.610100685888	2
1	61555	42.610177899773	3
1	61639	42.610525899773	2
1	61670	42.610557409498	1
1	62153	42.85634785578	3
1	62176	42.85669585578	1
1	62270	42.857927646845	3
1	62297	42.858275646845	1
1	62330	42.858321508465	3
1	62387	42.858669508465	1
1	62475	42.859612941223	3
1	62491	42.859960941223	1
1	62531	42.860527683517	3
1	62569	42.860875683517	2
1	62612	42.860902964713	1
1	63126	43.113037490386	3
1	63164	43.113385490386	2
1	63208	43.11370407668	1
1	63229	43.114200083319	3
1	63275	43.114548083319	2
1	63300	43.114679088013	1
1	63325	43.116116438437	3
1	63360	43.116464438437	1
1	63378	43.116810200823	3
1	63393	43.117158200823	1
1	63810	43.358171416162	3
1	63918	43.358519416162	1
1	63965	43.359002288775	3
1	63992	43.359350288775	1
1	64085	43.359727202516	3
1	64108	43.360075202516	1
1	64143	43.360431620109	3
1	64166	43.360779620109	1
1	64201	43.363648461744	3
1	64220	43.363996461744	1
1	64247	43.364274989856	3
1	64263	43.364622989856	1
1	64694	43.610004354585	3
1	64752	43.610352354585	1
1	64828	43.611398692111	3
1	64847	43.611746692111	1
1	64875	43.612214280282	3
1	64898	43.612562280282	1
1	64938	43.614931990062	3
1	64980	43.615279990062	2
1	65015	43.61534350303	1
1	65033	43.615485847033	3
1	65048	43.615833847033	1
1	65501	43.856088187478	3
1	65524	43.856436187478	1
1	65559	43.857192559423	3
1	65582	43.857540559423	1
1	65638	43.858434580628	3
1	65692	43.858782580628	1
1	65721	43.859752801691	3
1	65763	43.860100801691	1
1	65820	43.860736763786	3
1	65840	43.861084763786	1
1	66414	44.110739753149	3
1	66472	44.111087753149	1
1	66492	44.112616312683	3
1	66535	44.112964312683	1
1	66591	44.113516737383	3
1	66625	44.113864737383	2
1	66666	44.114120430446	1
1	66689	44.114627605621	3
1	66712	44.114975605621	1
1	66749	44.117131132422	3
1	66769	44.117479132422	1
1	67017	44.328836673534	3
1	67057	44.329168673534	1
1	67584	44.358840036353	3
1	67611	44.359188036353	1
1	67705	44.361865786474	3
1	67732	44.362213786474	1
1	67761	44.362598852232	3
1	67780	44.362946852232	1
1	67811	44.363634504132	3
1	67826	44.363982504132	1
1	67871	44.363983810507	3
1	67895	44.364331810507	1
1	67945	44.42883667022	3
1	67984	44.42918467022	1
1	68012	44.433172506004	3
1	68051	44.433504506004	1
1	68468	44.614178773201	3
1	68507	44.614526773201	1
1	68591	44.614991601154	3
1	68624	44.615339601154	1
1	68649	44.615479673149	3
1	68672	44.615827673149	1
1	68705	44.616302932231	3
1	68720	44.616650932231	1
1	68767	44.618126483182	3
1	68794	44.618474483182	1
1	68827	44.6192123073	3
1	68846	44.6195603073	1
1	69219	44.815009480343	3
1	69250	44.815357480343	1
1	69298	44.815784108856	3
1	69352	44.816132108856	1
1	69383	44.81614370328	3
1	69441	44.81649170328	1
1	69458	44.816730384652	3
1	69496	44.817078384652	1
1	69535	44.81804389788	3
1	69562	44.81839189788	1
1	69958	44.85609554871	3
1	69998	44.85644354871	1
1	70015	44.856719114275	3
1	70030	44.857067114275	1
1	70075	44.85725421856	3
1	70117	44.85760221856	2
1	70153	44.857853754913	1
1	70196	44.859263637606	3
1	70250	44.859611637606	1
1	70281	44.861623262059	3
1	70300	44.861971262059	1
1	70835	45.109977007115	3
1	70871	45.110325007115	1
1	70895	45.11067714072	3
1	70918	45.11102514072	1
1	70957	45.111109715243	3
1	70996	45.111457715243	1
1	71016	45.112072241274	3
1	71043	45.112420241274	1
1	71131	45.114232428867	3
1	71146	45.114580428867	1
1	71191	45.114780353327	3
1	71210	45.115128353327	1
1	71655	45.36006386122	3
1	71713	45.36041186122	2
1	71735	45.360448211468	1
1	71749	45.361375470316	3
1	71764	45.361723470316	1
1	71813	45.363749863281	3
1	71859	45.364097863281	2
1	71890	45.364213861971	1
1	71967	45.366314066298	3
1	71986	45.366662066298	1
1	72477	45.455338546227	3
1	72554	45.455686546227	1
1	72573	45.456346108072	3
1	72615	45.456694108072	2
1	72654	45.456789419649	3
1	72708	45.457137419649	1
1	72726	45.458166417112	3
1	72741	45.458514417112	1
1	72805	45.459264490914	3
1	72860	45.459612490914	1
1	73436	45.60702163491	3
1	73525	45.60736963491	1
1	73545	45.607389021286	3
1	73573	45.607737021286	1
1	73603	45.608629984339	3
1	73626	45.608977984339	1
1	73662	45.609714762751	3
1	73701	45.610062762751	1
1	73780	45.611103834352	3
1	73795	45.611451834352	1
1	73842	45.612223346928	3
1	73869	45.612571346928	1
1	74332	45.864767661884	3
1	74371	45.865115661884	1
1	74394	45.866556644925	3
1	74472	45.866904644925	2
1	74512	45.867105619879	1
1	74527	45.867653855829	3
1	74543	45.868001855829	1
1	74590	45.86912920897	3
1	74617	45.86947720897	1
1	74647	45.871086585771	3
1	74670	45.871434585771	1
1	75185	46.110658810895	3
1	75243	46.111006810895	1
1	75262	46.111013743443	3
1	75312	46.111361743443	1
1	75344	46.111476368424	3
1	75371	46.111824368424	1
1	75423	46.112353899647	3
1	75482	46.112701899647	1
1	75508	46.113136616163	3
1	75539	46.113484616163	1
1	75566	46.116254589406	3
1	75590	46.116602589406	1
1	76095	46.364182446927	3
1	76134	46.364530446927	1
1	76159	46.367225170926	3
1	76182	46.367573170926	1
1	76219	46.367755210454	3
1	76269	46.368103210454	2
1	76295	46.368424954593	1
1	76314	46.369031057077	3
1	76338	46.369379057077	1
1	76832	46.614229725893	3
1	76882	46.614577725893	2
1	76916	46.614719812963	1
1	76982	46.615408002175	3
1	77009	46.615756002175	1
1	77037	46.615841708332	3
1	77068	46.616189708332	1
1	77094	46.617012599668	3
1	77122	46.617360599668	1
1	77604	46.864277694157	3
1	77654	46.864625694157	1
1	77687	46.864765895094	3
1	77750	46.865113895094	1
1	77770	46.865321064981	3
1	77797	46.865669064981	1
1	77825	46.866309731886	3
1	77856	46.866657731886	1
1	77943	46.869500674347	3
1	77971	46.869848674347	1
1	78443	47.112435595479	3
1	78512	47.112783595479	2
1	78545	47.112977585453	1
1	78561	47.113321762215	3
1	78626	47.113669762215	1
1	78712	47.114376185122	3
1	78744	47.114724185122	1
1	78775	47.114818245636	3
1	78807	47.115166245636	1
1	79291	47.361697741278	3
1	79322	47.362045741278	1
1	79466	47.364004727518	3
1	79497	47.364352727518	1
1	79522	47.364739213223	3
1	79562	47.365087213223	1
1	79584	47.366347087378	3
1	79616	47.366695087378	1
1	79647	47.366703284837	3
1	79678	47.367051284837	1
1	80152	47.611633721612	3
1	80191	47.611981721612	1
1	80212	47.612917793899	3
1	80262	47.613265793899	2
1	80290	47.613405968569	1
1	80369	47.615507486069	3
1	80401	47.615855486069	1
1	80424	47.6160286102	3
1	80457	47.6163766102	1
1	80956	47.86987609924	3
1	81010	47.87022409924	2
1	81038	47.870302178913	1
1	81076	47.871776748821	3
1	81145	47.872124748821	2
1	81169	47.872357642101	1
1	81187	47.872508586495	3
1	81218	47.872856586495	1
1	81801	48.110768379344	3
1	81841	48.111116379344	1
1	81919	48.111764969935	3
1	81977	48.112112969935	2
1	81998	48.112187888095	1
1	82018	48.112460265067	3
1	82049	48.112808265067	1
1	82077	48.113412234857	3
1	82113	48.113760234857	1
1	83152	48.363512847641	3
1	83191	48.363860847641	1
1	83276	48.366251140107	3
1	83315	48.366599140107	1
1	83390	48.367048221646	3
1	83422	48.367396221646	1
1	83450	48.367500375304	3
1	83485	48.367848375304	1
1	83508	48.368133169414	3
1	83540	48.368481169414	1
1	84069	48.613034404702	3
1	84119	48.613382404702	2
1	84146	48.613575339963	1
1	84824	48.875302649866	3
1	84898	48.875650649866	2
1	84936	48.875892146443	1
1	85699	49.117540913492	3
1	85761	49.117888913492	1
1	85837	49.121081873841	3
1	85869	49.121429873841	1
1	86385	49.362524157526	3
1	86421	49.362872157526	1
1	86525	49.363690989873	3
1	86576	49.364038989873	1
1	87260	49.614669127374	3
1	87295	49.615017127374	1
1	88095	49.869909554249	3
1	88149	49.870257554249	1
1	89003	50.121112890295	3
1	89038	50.121460890295	1
1	89706	50.37535219286	3
1	89760	50.37570019286	1
1	90379	50.625028903089	3
1	90437	50.625376903089	1
1	90984	50.868551365761	3
1	91038	50.868899365761	1
1	91955	51.123348464242	3
1	92028	51.123696464242	1
1	92696	51.374147921385	3
1	92727	51.374495921385	1
1	93386	51.618998945305	3
1	93417	51.619346945305	1
1	94110	51.868830237655	3
1	94183	51.869178237655	1
1	95093	52.119833561159	3
1	95124	52.120181561159	1
1	95702	52.376706785447	3
1	95780	52.377054785447	1
1	96438	52.627417749576	3
1	96492	52.627765749576	1
1	97153	52.873388804897	3
1	97214	52.873736804897	1
1	98007	53.12835295072	3
1	98030	53.12870095072	1
1	98750	53.375788052352	3
1	98796	53.376136052352	1
2	2	0.1	1
2	10348	28.10823507569	2
2	10386	28.10858307569	1
2	11022	28.361609670616	2
2	11056	28.361957670616	1
2	11673	28.608595156501	2
2	11688	28.608943156501	1
2	12199	28.856668636695	2
2	12214	28.857016636695	1
2	12953	29.11013377997	2
2	12991	29.11048177997	1
2	13632	29.361588859875	2
2	13647	29.361936859875	1
2	14055	29.60777777165	2
2	14097	29.60812577165	1
2	14610	29.850684311977	2
2	14625	29.851032311977	1
2	15446	30.104648317171	2
2	15511	30.104996317171	1
2	15988	30.357971876443	2
2	16022	30.358319876443	1
2	16661	30.6080890685	2
2	16695	30.6084370685	1
2	17198	30.852328336009	2
2	17251	30.852676336009	1
2	17943	31.102802301778	2
2	17981	31.103150301778	1
2	18631	31.35746424616	2
2	18673	31.35781224616	1
2	19237	31.602350797066	2
2	19252	31.602698797066	1
2	20004	31.85471159525	2
2	20019	31.85505959525	1
2	20882	32.109097701271	2
2	20935	32.109445701271	1
2	21496	32.355897220351	2
2	21511	32.356245220351	1
2	22201	32.607454684325	2
2	22262	32.607802684325	1
2	22802	32.854326921201	2
2	22871	32.854674921201	1
2	23394	33.002097985434	2
2	23428	33.002445985434	1
2	23729	33.103208451052	2
2	23744	33.103556451052	1
2	24630	33.330306899413	2
2	24666	33.330654899413	1
2	24697	33.33154703046	2
2	24712	33.33187903046	1
2	25518	33.43154703046	2
2	25533	33.43189503046	1
2	25568	33.435413660534	2
2	25583	33.435745660534	1
2	25727	33.602150453157	2
2	25742	33.602498453157	1
2	26610	33.806895531391	2
2	26625	33.807243531391	1
2	26786	33.809186672534	2
2	26801	33.809534672534	1
2	27255	33.860016889621	2
2	27301	33.860364889621	1
2	28299	34.106739049941	2
2	28314	34.107087049941	1
2	28525	34.132057689118	2
2	28540	34.132405689118	1
2	29599	34.354588536217	2
2	29652	34.354936536217	1
2	30337	34.44982795189	2
2	30352	34.45017595189	1
2	30823	34.604104279133	2
2	30838	34.604452279133	1
2	31285	34.609682721491	2
2	31327	34.610030721491	1
2	32304	34.859558918349	2
2	32319	34.859906918349	1
2	32779	35.101711679118	2
2	32799	35.102059679118	1
2	33425	35.251416479871	2
2	33440	35.251764479871	1
2	33501	35.252096820203	2
2	33548	35.252428820203	1
2	33557	35.252428990369	2
2	33622	35.252760990369	1
2	34150	35.353871424443	2
2	34165	35.354219424443	1
2	35381	35.608435846239	2
2	35396	35.608783846239	1
2	36398	35.859554997437	2
2	36413	35.859902997437	1
2	36952	36.10412352728	2
2	36967	36.10447152728	1
2	38568	36.357744930648	2
2	38602	36.358092930648	1
2	39195	36.603282194506	2
2	39210	36.603630194506	1
2	40178	36.857417868957	2
2	40220	36.857765868957	1
2	41031	37.111293095832	2
2	41046	37.111641095832	1
2	41684	37.358805449124	2
2	41734	37.359153449124	1
2	42562	37.612377761741	2
2	42596	37.612725761741	1
2	43194	37.859894578195	2
2	43209	37.860242578195	1
2	44128	38.109626299738	2
2	44178	38.109974299738	1
2	45035	38.360939263655	2
2	45050	38.361287263655	1
2	45548	38.609408053951	2
2	45563	38.609756053951	1
2	46503	38.861753398398	2
2	46553	38.862101398398	1
2	47255	39.114551627936	2
2	47270	39.114899627936	1
2	48135	39.360813840407	2
2	48150	39.361161840407	1
2	48817	39.61418885969	2
2	48867	39.61453685969	1
2	49624	39.860034971906	2
2	49705	39.860382971906	1
2	50740	40.110022756105	2
2	50774	40.110370756105	1
2	51837	40.359074624135	2
2	51852	40.359422624135	1
2	52704	40.60882501554	2
2	52719	40.60917301554	1
2	53567	40.815408959289	2
2	53582	40.815756959289	1
2	54650	40.86453895067	2
2	54666	40.86488695067	1
2	55569	41.109148808874	2
2	55584	41.109496808874	1
2	56697	41.358457934145	2
2	56712	41.358805934145	1
2	57656	41.60969476041	2
2	57690	41.61004276041	1
2	59267	41.862775853318	2
2	59282	41.863123853318	1
2	60176	42.11135432043	2
2	60191	42.11170232043	1
2	60823	42.364406200586	2
2	60857	42.364754200586	1
2	61765	42.613265791198	2
2	61780	42.613613791198	1
2	62208	42.857230876472	2
2	62223	42.857578876472	1
2	63431	43.117210462608	2
2	63447	43.117558462608	1
2	64023	43.359364543176	2
2	64039	43.359712543176	1
2	64768	43.610852147146	2
2	64783	43.611200147146	1
2	65737	43.860005021828	2
2	65795	43.860353021828	1
2	66508	44.112668853083	2
2	66567	44.113016853083	1
2	67642	44.359704527129	2
2	67658	44.360052527129	1
2	68527	44.614622387689	2
2	68543	44.614970387689	1
2	69395	44.816464462578	2
2	69472	44.816812462578	1
2	70172	44.859241960706	2
2	70206	44.859589960706	1
2	71070	45.11243422968	2
2	71086	45.11278222968	1
2	71906	45.365348605001	2
2	71921	45.365696605001	1
2	72783	45.459095245955	2
2	72817	45.459443245955	1
2	73721	45.610414577988	2
2	73736	45.610762577988	1
2	74406	45.866617680281	2
2	74488	45.866965680281	1
2	75398	46.112245235986	2
2	75433	46.112593235986	1
2	76366	46.369489898573	2
2	76381	46.369837898573	1
2	77150	46.61831064733	2
2	77165	46.61865864733	1
2	77882	46.866760215954	2
2	77898	46.867108215954	1
2	78825	47.117172349411	2
2	78840	47.117520349411	1
2	79407	47.363256634232	2
2	79422	47.363604634232	1
2	80308	47.614962046556	2
2	80324	47.615310046556	1
2	81052	47.871666949032	2
2	81105	47.872014949032	1
2	81857	48.111119109198	2
2	81872	48.111467109198	1
2	83331	48.366633864571	2
2	83346	48.366981864571	1
2	84160	48.614247161447	2
2	84195	48.614595161447	1
2	85005	48.879165408419	2
2	85020	48.879513408419	1
2	85892	49.122113181408	2
2	85907	49.122461181408	1
2	86650	49.365873221854	2
2	86665	49.366221221854	1
2	87424	49.618561615146	2
2	87441	49.618909615146	1
2	88169	49.87391627519	2
2	88184	49.87426427519	1
2	89057	50.125140359779	2
2	89073	50.125488359779	1
2	89777	50.376125573249	2
2	89792	50.376473573249	1
2	90474	50.62643417706	2
2	90524	50.62678217706	1
2	91133	50.869721807812	2
2	91148	50.870069807812	1
2	92064	51.12864020925	2
2	92079	51.12898820925	1
2	92806	51.378630229396	2
2	92821	51.378978229396	1
2	93552	51.622984349033	2
2	93567	51.623332349033	1
2	94240	51.869880157414	2
2	94274	51.870228157414	1
2	95143	52.123820417497	2
2	95159	52.124168417497	1
2	95853	52.378091265332	2
2	95868	52.378439265332	1
2	96570	52.630060598845	2
2	96585	52.630408598845	1
2	97280	52.87540689467	2
2	97296	52.87575489467	1
2	98109	53.132653262169	2
2	98124	53.133001262169	1
2	98817	53.380505213242	2
2	98832	53.380853213242	1
3	2	0.1	0
3	2	0.1	0
3	2	0.1	4
4	2	0.1	1
4	339	18.102744240989	3
4	353	18.103092240989	1
4	438	18.354221502168	3
4	452	18.354569502168	1
4	573	18.60423643208	3
4	587	18.60458443208	1
4	715	18.851922081361	3
4	731	18.852270081361	1
4	871	19.100283735739	3
4	883	19.100631735739	1
4	1025	19.352388494323	3
4	1037	19.352736494323	1
4	1178	19.602400050422	3
4	1190	19.602748050422	1
4	1336	19.854180555093	3
4	1348	19.854528555093	1
4	1520	20.002290616147	3
4	1532	20.002638616147	1
4	1565	20.104163256055	3
4	1577	20.104511256055	1
4	1782	20.329591836105	3
4	1794	20.329939836105	1
4	1921	20.34132090704	3
4	1933	20.34165290704	1
4	1970	20.346001215176	3
4	1994	20.350349215176	1
4	2027	20.352307550882	3
4	2039	20.352655550882	1
4	2238	20.603603311478	3
4	2250	20.603951311478	1
4	2423	20.854723488	3
4	2435	20.855071488	1
4	2625	21.004348275428	3
4	2647	21.008696275428	1
4	2704	21.101322912394	3
4	2716	21.101670912394	1
4	2891	21.35108287949	3
4	2903	21.35143087949	1
4	3081	21.603088297424	3
4	3093	21.603436297424	1
4	3270	21.851932560944	3
4	3282	21.852280560944	1
4	3470	22.004348226052	3
4	3492	22.008696226052	1
[...]
241	106990	8.1	0
241	106990	8.2	0
241	106990	8.3	0
241	106990	8.4	0
241	106990	8.5	0
241	106990	8.6	0
241	106990	8.7	0
241	106990	8.8	0
241	106990	8.9	0
241	106990	9	0
241	106990	9.1	0
241	106990	9.2	0
241	106990	9.3	0
241	106990	9.4	0
241	106990	9.5	0
241	106990	9.6	0
241	106990	9.7	0
241	106990	9.8	0
241	106990	9.9	0
241	106990	10	0
241	106990	10.1	0
241	106990	10.2	0
241	106990	10.3	0
241	106990	10.4	0
241	106990	10.5	0
241	106990	10.6	0
241	106990	10.7	0
241	106990	10.8	0
241	106990	10.9	0
241	106990	11	0
241	106990	11.1	0
241	106990	11.2	0
241	106990	11.3	0
241	106990	11.4	0
241	106990	11.5	0
241	106990	11.6	0
241	106990	11.7	0
241	106990	11.8	0
241	106990	11.9	0
241	106990	12	0
241	106990	12.1	0
241	106990	12.2	0
241	106990	12.3	0
241	106990	12.4	0
241	106990	12.5	0
241	106990	12.6	0
241	106990	12.7	0
241	106990	12.8	0
241	106990	12.9	0
241	106990	13	0
241	106990	13.1	0
241	106990	13.2	0
241	106990	13.3	0
241	106990	13.4	0
241	106990	13.5	0
241	106990	13.6	0
241	106990	13.7	0
241	106990	13.8	0
241	106990	13.9	0
241	106990	14	0
241	106990	14.1	0
241	106990	14.2	0
241	106990	14.3	0
241	106990	14.4	0
241	106990	14.5	0
241	106990	14.6	0
241	106990	14.7	0
241	106990	14.8	0
241	106990	14.9	0
241	106990	15	0
241	106990	15.1	0
241	106990	15.2	0
241	106990	15.3	0
241	106990	15.4	0
241	106990	15.5	0
241	106990	15.6	0
241	106990	15.7	0
241	106990	15.8	0
241	106990	15.9	0
241	106990	16	0
241	106990	16.1	0
241	106990	16.2	0
241	106990	16.3	0
241	106990	16.4	0
241	106990	16.5	0
241	106990	16.6	0
241	106990	16.7	0
241	106990	16.8	0
241	106990	16.9	0
241	106990	17	0
241	106990	17.1	0
241	106990	17.2	0
241	106990	17.3	0
241	106990	17.4	0
241	106990	17.5	0
241	106990	17.6	0
241	106990	17.7	0
241	106990	17.8	0
241	106990	17.9	0
241	106990	18	0
241	106990	18.1	0
241	106990	18.2	0
241	106990	18.3	0
241	106990	18.4	0
241	106990	18.5	0
241	106990	18.6	0
241	106990	18.7	0
241	106990	18.8	0
241	106990	18.9	0
241	106990	19	0
241	106990	19.1	0
241	106990	19.2	0
241	106990	19.3	0
241	106990	19.4	0
241	106990	19.5	0
241	106990	19.6	0
241	106990	19.7	0
241	106990	19.8	0
241	106990	19.9	0
241	106990	20	0
241	106990	20.1	0
241	106990	20.2	0
241	106990	20.3	0
241	106990	20.4	0
241	106990	20.5	0
241	106990	20.6	0
241	106990	20.7	0
241	106990	20.8	0
241	106990	20.9	0
241	106990	21	0
241	106990	21.1	0
241	106990	21.2	0
241	106990	21.3	0
241	106990	21.4	0
241	106990	21.5	0
241	106990	21.6	0
241	106990	21.7	0
241	106990	21.8	0
241	106990	21.9	0
241	106990	22	0
241	106990	22.1	0
241	106990	22.2	0
241	106990	22.3	0
241	106990	22.4	0
241	106990	22.5	0
241	106990	22.6	0
241	106990	22.7	0
241	106990	22.8	0
241	106990	22.9	0
241	106990	23	0
241	106990	23.1	0
241	106990	23.2	0
241	106990	23.3	0
241	106990	23.4	0
241	106990	23.5	0
241	106990	23.6	0
241	106990	23.7	0
241	106990	23.8	0
241	106990	23.9	0
241	106990	24	0
241	106990	24.1	0
241	106990	24.2	0
241	106990	24.3	0
241	106990	24.4	0
241	106990	24.5	0
241	106990	24.6	0
241	106990	24.7	0
241	106990	24.8	0
241	106990	24.9	0
241	106990	25	0
241	106990	25.1	0
241	106990	25.2	0
241	106990	25.3	0
241	106990	25.4	0
241	106990	25.5	0
241	106990	25.6	0
241	106990	25.7	0
241	106990	25.8	0
241	106990	25.9	0
241	106990	26	0
241	106990	26.1	0
241	106990	26.2	0
241	106990	26.3	0
241	106990	26.4	0
241	106990	26.5	0
241	106990	26.6	0
241	106990	26.7	0
241	106990	26.8	0
241	106990	26.9	0
241	106990	27	0
241	106990	27.1	0
241	106990	27.2	0
241	106990	27.3	0
241	106990	27.4	0
241	106990	27.5	0
241	106990	27.6	0
241	106990	27.7	0
241	106990	27.8	0
241	106990	27.9	0
241	106990	28	0
241	106990	28.1	0
241	106990	28.2	0
241	106990	28.3	0
241	106990	28.4	0
241	106990	28.5	0
241	106990	28.6	0
241	106990	28.7	0
241	106990	28.8	0
241	106990	28.9	0
241	106990	29	0
241	106990	29.1	0
241	106990	29.2	0
241	106990	29.3	0
241	106990	29.4	0
241	106990	29.5	0
241	106990	29.6	0
241	106990	29.7	0
241	106990	29.8	0
241	106990	29.9	0
241	106990	30	0
241	106990	30.1	0
241	106990	30.2	0
241	106990	30.3	0
241	106990	30.4	0
241	106990	30.5	0
241	106990	30.6	0
241	106990	30.7	0
241	106990	30.8	0
241	106990	30.9	0
241	106990	31	0
241	106990	31.1	0
241	106990	31.2	0
241	106990	31.3	0
241	106990	31.4	0
241	106990	31.5	0
241	106990	31.6	0
241	106990	31.7	0
241	106990	31.8	0
241	106990	31.9	0
241	106990	32	0
241	106990	32.1	0
241	106990	32.2	0
241	106990	32.3	0
241	106990	32.4	0
241	106990	32.5	0
241	106990	32.6	0
241	106990	32.7	0
241	106990	32.8	0
241	106990	32.9	0
241	106990	33	0
241	106990	33.1	0
241	106990	33.2	0
241	106990	33.3	0
241	106990	33.4	0
241	106990	33.5	0
241	106990	33.6	0
241	106990	33.7	0
241	106990	33.8	0
241	106990	33.9	0
241	106990	34	0
241	106990	34.1	0
241	106990	34.2	0
241	106990	34.3	0
241	106990	34.4	0
241	106990	34.5	0
241	106990	34.6	0
241	106990	34.7	0
241	106990	34.8	0
241	106990	34.9	0
241	106990	35	0
241	106990	35.1	0
241	106990	35.2	0
241	106990	35.3	0
241	106990	35.4	0
241	106990	35.5	0
241	106990	35.6	0
241	106990	35.7	0
241	106990	35.8	0
241	106990	35.9	0
241	106990	36	0
241	106990	36.1	0
241	106990	36.2	0
241	106990	36.3	0
241	106990	36.4	0
241	106990	36.5	0
241	106990	36.6	0
241	106990	36.7	0
241	106990	36.8	0
241	106990	36.9	0
241	106990	37	0
241	106990	37.1	0
241	106990	37.2	0
241	106990	37.3	0
241	106990	37.4	0
241	106990	37.5	0
241	106990	37.6	0
241	106990	37.7	0
241	106990	37.8	0
241	106990	37.9	0
241	106990	38	0
241	106990	38.1	0
241	106990	38.2	0
241	106990	38.3	0
241	106990	38.4	0
241	106990	38.5	0
241	106990	38.6	0
241	106990	38.7	0
241	106990	38.8	0
241	106990	38.9	0
241	106990	39	0
241	106990	39.1	0
241	106990	39.2	0
241	106990	39.3	0
241	106990	39.4	0
241	106990	39.5	0
241	106990	39.6	0
241	106990	39.7	0
241	106990	39.8	0
241	106990	39.9	0
241	106990	40	0
241	106990	40.1	0
241	106990	40.2	0
241	106990	40.3	0
241	106990	40.4	0
241	106990	40.5	0
241	106990	40.6	0
241	106990	40.7	0
241	106990	40.8	0
241	106990	40.9	0
241	106990	41	0
241	106990	41.1	0
241	106990	41.2	0
241	106990	41.3	0
241	106990	41.4	0
241	106990	41.5	0
241	106990	41.6	0
241	106990	41.7	0
241	106990	41.8	0
241	106990	41.9	0
241	106990	42	0
241	106990	42.1	0
241	106990	42.2	0
241	106990	42.3	0
241	106990	42.4	0
241	106990	42.5	0
241	106990	42.6	0
241	106990	42.7	0
241	106990	42.8	0
241	106990	42.9	0
241	106990	43	0
241	106990	43.1	0
241	106990	43.2	0
241	106990	43.3	0
241	106990	43.4	0
241	106990	43.5	0
241	106990	43.6	0
241	106990	43.7	0
241	106990	43.8	0
241	106990	43.9	0
241	106990	44	0
241	106990	44.1	0
241	106990	44.2	0
241	106990	44.3	0
241	106990	44.4	0
241	106990	44.5	0
241	106990	44.6	0
241	106990	44.7	0
241	106990	44.8	0
241	106990	44.9	0
241	106990	45	0
241	106990	45.1	0
241	106990	45.2	0
241	106990	45.3	0
241	106990	45.4	0
241	106990	45.5	0
241	106990	45.6	0
241	106990	45.7	0
241	106990	45.8	0
241	106990	45.9	0
241	106990	46	0
241	106990	46.1	0
241	106990	46.2	0
241	106990	46.3	0
241	106990	46.4	0
241	106990	46.5	0
241	106990	46.6	0
241	106990	46.7	0
241	106990	46.8	0
241	106990	46.9	0
241	106990	47	0
241	106990	47.1	0
241	106990	47.2	0
241	106990	47.3	0
241	106990	47.4	0
241	106990	47.5	0
241	106990	47.6	0
241	106990	47.7	0
241	106990	47.8	0
241	106990	47.9	0
241	106990	48	0
241	106990	48.1	0
241	106990	48.2	0
241	106990	48.3	0
241	106990	48.4	0
241	106990	48.5	0
241	106990	48.6	0
241	106990	48.7	0
241	106990	48.8	0
241	106990	48.9	0
241	106990	49	0
241	106990	49.1	0
241	106990	49.2	0
241	106990	49.3	0
241	106990	49.4	0
241	106990	49.5	0
241	106990	49.6	0
241	106990	49.7	0
241	106990	49.8	0
241	106990	49.9	0
241	106990	50	0
241	106990	50.1	0
241	106990	50.2	0
241	106990	50.3	0
241	106990	50.4	0
241	106990	50.5	0
241	106990	50.6	0
241	106990	50.7	0
241	106990	50.8	0
241	106990	50.9	0
241	106990	51	0
241	106990	51.1	0
241	106990	51.2	0
241	106990	51.3	0
241	106990	51.4	0
241	106990	51.5	0
241	106990	51.6	0
241	106990	51.7	0
241	106990	51.8	0
241	106990	51.9	0
241	106990	52	0
241	106990	52.1	0
241	106990	52.2	0
241	106990	52.3	0
241	106990	52.4	0
241	106990	52.5	0
241	106990	52.6	0
241	106990	52.7	0
241	106990	52.8	0
241	106990	52.9	0
241	106990	53	0
241	106990	53.1	0
241	106990	53.2	0
241	106990	53.3	0
241	106990	53.4	0
241	106990	53.5	0
241	106990	53.6	0
241	106990	53.7	0
241	106990	53.8	0
241	106990	53.9	0
241	106990	54	0
241	106990	54.1	0
241	106990	54.2	0
241	106990	54.3	0
241	106990	54.4	0
241	106990	54.5	0
241	106990	54.6	0
241	106990	54.7	0
241	106990	54.8	0
241	106990	54.9	0
241	106990	55	0
241	106990	55.1	0
241	106990	55.2	0
241	106990	55.3	0
241	106990	55.4	0
241	106990	55.5	0
241	106990	55.6	0
241	106990	55.7	0
241	106990	55.8	0
241	106990	55.9	0
241	106990	56	0
241	106990	56.1	0
241	106990	56.2	0
241	106990	56.3	0
241	106990	56.4	0
241	106990	56.5	0
241	106990	56.6	0
241	106990	56.7	0
241	106990	56.8	0
241	106990	56.9	0
241	106990	57	0
241	106990	57.1	0
241	106990	57.2	0
241	106990	57.3	0
241	106990	57.4	0
241	106990	57.5	0
241	106990	57.6	0
241	106990	57.7	0
241	106990	57.8	0
241	106990	57.9	0
241	106990	58	0
241	106990	58.1	0
241	106990	58.2	0
241	106990	58.3	0
241	106990	58.4	0
241	106990	58.5	0
241	106990	58.6	0
241	106990	58.7	0
241	106990	58.8	0
241	106990	58.9	0
241	106990	59	0
241	106990	59.1	0
241	106990	59.2	0
241	106990	59.3	0
241	106990	59.4	0
241	106990	59.5	0
241	106990	59.6	0
241	106990	59.7	0
241	106990	59.8	0
241	106990	59.9	0
241	106990	60	0
241	106990	60.1	0
241	106990	60.2	0
241	106990	60.3	0
241	106990	60.4	0
241	106990	60.5	0
242	106990	0.1	0
242	106990	0.2	0
242	106990	0.3	0
242	106990	0.4	0
242	106990	0.5	0
242	106990	0.6	0
242	106990	0.7	0
242	106990	0.8	0
242	106990	0.9	0
242	106990	1	0
242	106990	1.1	0
242	106990	1.2	0
242	106990	1.3	0
242	106990	1.4	0
242	106990	1.5	0
242	106990	1.6	0
242	106990	1.7	0
242	106990	1.8	0
242	106990	1.9	0
242	106990	2	0
242	106990	2.1	0
242	106990	2.2	0
242	106990	2.3	0
242	106990	2.4	0
242	106990	2.5	0
242	106990	2.6	0
242	106990	2.7	0
242	106990	2.8	0
242	106990	2.9	0
242	106990	3	0
242	106990	3.1	0
242	106990	3.2	0
242	106990	3.3	0
242	106990	3.4	0
242	106990	3.5	0
242	106990	3.6	0
242	106990	3.7	0
242	106990	3.8	0
242	106990	3.9	0
242	106990	4	0
242	106990	4.1	0
242	106990	4.2	0
242	106990	4.3	0
242	106990	4.4	0
242	106990	4.5	0
242	106990	4.6	0
242	106990	4.7	0
242	106990	4.8	0
242	106990	4.9	0
242	106990	5	0
242	106990	5.1	0
242	106990	5.2	0
242	106990	5.3	0
242	106990	5.4	0
242	106990	5.5	0
242	106990	5.6	0
242	106990	5.7	0
242	106990	5.8	0
242	106990	5.9	0
242	106990	6	0
242	106990	6.1	0
242	106990	6.2	0
242	106990	6.3	0
242	106990	6.4	0
242	106990	6.5	0
242	106990	6.6	0
242	106990	6.7	0
242	106990	6.8	0
242	106990	6.9	0
242	106990	7	0
242	106990	7.1	0
242	106990	7.2	0
242	106990	7.3	0
242	106990	7.4	0
242	106990	7.5	0
242	106990	7.6	0
242	106990	7.7	0
242	106990	7.8	0
242	106990	7.9	0
242	106990	8	0
242	106990	8.1	0
242	106990	8.2	0
242	106990	8.3	0
242	106990	8.4	0
242	106990	8.5	0
242	106990	8.6	0
242	106990	8.7	0
242	106990	8.8	0
242	106990	8.9	0
242	106990	9	0
242	106990	9.1	0
242	106990	9.2	0
242	106990	9.3	0
242	106990	9.4	0
242	106990	9.5	0
242	106990	9.6	0
242	106990	9.7	0
242	106990	9.8	0
242	106990	9.9	0
242	106990	10	0
242	106990	10.1	0
242	106990	10.2	0
242	106990	10.3	0
242	106990	10.4	0
242	106990	10.5	0
242	106990	10.6	0
242	106990	10.7	0
242	106990	10.8	0
242	106990	10.9	0
242	106990	11	0
242	106990	11.1	0
242	106990	11.2	0
242	106990	11.3	0
242	106990	11.4	0
242	106990	11.5	0
242	106990	11.6	0
242	106990	11.7	0
242	106990	11.8	0
242	106990	11.9	0
242	106990	12	0
242	106990	12.1	0
242	106990	12.2	0
242	106990	12.3	0
242	106990	12.4	0
242	106990	12.5	0
242	106990	12.6	0
242	106990	12.7	0
242	106990	12.8	0
242	106990	12.9	0
242	106990	13	0
242	106990	13.1	0
242	106990	13.2	0
242	106990	13.3	0
242	106990	13.4	0
242	106990	13.5	0
242	106990	13.6	0
242	106990	13.7	0
242	106990	13.8	0
242	106990	13.9	0
242	106990	14	0
242	106990	14.1	0
242	106990	14.2	0
242	106990	14.3	0
242	106990	14.4	0
242	106990	14.5	0
242	106990	14.6	0
242	106990	14.7	0
242	106990	14.8	0
242	106990	14.9	0
242	106990	15	0
242	106990	15.1	0
242	106990	15.2	0
242	106990	15.3	0
242	106990	15.4	0
242	106990	15.5	0
242	106990	15.6	0
242	106990	15.7	0
242	106990	15.8	0
242	106990	15.9	0
242	106990	16	0
242	106990	16.1	0
242	106990	16.2	0
242	106990	16.3	0
242	106990	16.4	0
242	106990	16.5	0
242	106990	16.6	0
242	106990	16.7	0
242	106990	16.8	0
242	106990	16.9	0
242	106990	17	0
242	106990	17.1	0
242	106990	17.2	0
242	106990	17.3	0
242	106990	17.4	0
242	106990	17.5	0
242	106990	17.6	0
242	106990	17.7	0
242	106990	17.8	0
242	106990	17.9	0
242	106990	18	0
242	106990	18.1	0
242	106990	18.2	0
242	106990	18.3	0
242	106990	18.4	0
242	106990	18.5	0
242	106990	18.6	0
242	106990	18.7	0
242	106990	18.8	0
242	106990	18.9	0
242	106990	19	0
242	106990	19.1	0
242	106990	19.2	0
242	106990	19.3	0
242	106990	19.4	0
242	106990	19.5	0
242	106990	19.6	0
242	106990	19.7	0
242	106990	19.8	0
242	106990	19.9	0
242	106990	20	0
242	106990	20.1	0
242	106990	20.2	0
242	106990	20.3	0
242	106990	20.4	0
242	106990	20.5	0
242	106990	20.6	0
242	106990	20.7	0
242	106990	20.8	0
242	106990	20.9	0
242	106990	21	0
242	106990	21.1	0
242	106990	21.2	0
242	106990	21.3	0
242	106990	21.4	0
242	106990	21.5	0
242	106990	21.6	0
242	106990	21.7	0
242	106990	21.8	0
242	106990	21.9	0
242	106990	22	0
242	106990	22.1	0
242	106990	22.2	0
242	106990	22.3	0
242	106990	22.4	0
242	106990	22.5	0
242	106990	22.6	0
242	106990	22.7	0
242	106990	22.8	0
242	106990	22.9	0
242	106990	23	0
242	106990	23.1	0
242	106990	23.2	0
242	106990	23.3	0
242	106990	23.4	0
242	106990	23.5	0
242	106990	23.6	0
242	106990	23.7	0
242	106990	23.8	0
242	106990	23.9	0
242	106990	24	0
242	106990	24.1	0
242	106990	24.2	0
242	106990	24.3	0
242	106990	24.4	0
242	106990	24.5	0
242	106990	24.6	0
242	106990	24.7	0
242	106990	24.8	0
242	106990	24.9	0
242	106990	25	0
242	106990	25.1	0
242	106990	25.2	0
242	106990	25.3	0
242	106990	25.4	0
242	106990	25.5	0
242	106990	25.6	0
242	106990	25.7	0
242	106990	25.8	0
242	106990	25.9	0
242	106990	26	0
242	106990	26.1	0
242	106990	26.2	0
242	106990	26.3	0
242	106990	26.4	0
242	106990	26.5	0
242	106990	26.6	0
242	106990	26.7	0
242	106990	26.8	0
242	106990	26.9	0
242	106990	27	0
242	106990	27.1	0
242	106990	27.2	0
242	106990	27.3	0
242	106990	27.4	0
242	106990	27.5	0
242	106990	27.6	0
242	106990	27.7	0
242	106990	27.8	0
242	106990	27.9	0
242	106990	28	0
242	106990	28.1	0
242	106990	28.2	0
242	106990	28.3	0
242	106990	28.4	0
242	106990	28.5	0
242	106990	28.6	0
242	106990	28.7	0
242	106990	28.8	0
242	106990	28.9	0
242	106990	29	0
242	106990	29.1	0
242	106990	29.2	0
242	106990	29.3	0
242	106990	29.4	0
242	106990	29.5	0
242	106990	29.6	0
242	106990	29.7	0
242	106990	29.8	0
242	106990	29.9	0
242	106990	30	0
242	106990	30.1	0
242	106990	30.2	0
242	106990	30.3	0
242	106990	30.4	0
242	106990	30.5	0
242	106990	30.6	0
242	106990	30.7	0
242	106990	30.8	0
242	106990	30.9	0
242	106990	31	0
242	106990	31.1	0
242	106990	31.2	0
242	106990	31.3	0
242	106990	31.4	0
242	106990	31.5	0
242	106990	31.6	0
242	106990	31.7	0
242	106990	31.8	0
242	106990	31.9	0
242	106990	32	0
242	106990	32.1	0
242	106990	32.2	0
242	106990	32.3	0
242	106990	32.4	0
242	106990	32.5	0
242	106990	32.6	0
242	106990	32.7	0
242	106990	32.8	0
242	106990	32.9	0
242	106990	33	0
242	106990	33.1	0
242	106990	33.2	0
242	106990	33.3	0
242	106990	33.4	0
242	106990	33.5	0
242	106990	33.6	0
242	106990	33.7	0
242	106990	33.8	0
242	106990	33.9	0
242	106990	34	0
242	106990	34.1	0
242	106990	34.2	0
242	106990	34.3	0
242	106990	34.4	0
242	106990	34.5	0
242	106990	34.6	0
242	106990	34.7	0
242	106990	34.8	0
242	106990	34.9	0
242	106990	35	0
242	106990	35.1	0
242	106990	35.2	0
242	106990	35.3	0
242	106990	35.4	0
242	106990	35.5	0
242	106990	35.6	0
242	106990	35.7	0
242	106990	35.8	0
242	106990	35.9	0
242	106990	36	0
242	106990	36.1	0
242	106990	36.2	0
242	106990	36.3	0
242	106990	36.4	0
242	106990	36.5	0
242	106990	36.6	0
242	106990	36.7	0
242	106990	36.8	0
242	106990	36.9	0
242	106990	37	0
242	106990	37.1	0
242	106990	37.2	0
242	106990	37.3	0
242	106990	37.4	0
242	106990	37.5	0
242	106990	37.6	0
242	106990	37.7	0
242	106990	37.8	0
242	106990	37.9	0
242	106990	38	0
242	106990	38.1	0
242	106990	38.2	0
242	106990	38.3	0
242	106990	38.4	0
242	106990	38.5	0
242	106990	38.6	0
242	106990	38.7	0
242	106990	38.8	0
242	106990	38.9	0
242	106990	39	0
242	106990	39.1	0
242	106990	39.2	0
242	106990	39.3	0
242	106990	39.4	0
242	106990	39.5	0
242	106990	39.6	0
242	106990	39.7	0
242	106990	39.8	0
242	106990	39.9	0
242	106990	40	0
242	106990	40.1	0
242	106990	40.2	0
242	106990	40.3	0
242	106990	40.4	0
242	106990	40.5	0
242	106990	40.6	0
242	106990	40.7	0
242	106990	40.8	0
242	106990	40.9	0
242	106990	41	0
242	106990	41.1	0
242	106990	41.2	0
242	106990	41.3	0
242	106990	41.4	0
242	106990	41.5	0
242	106990	41.6	0
242	106990	41.7	0
242	106990	41.8	0
242	106990	41.9	0
242	106990	42	0
242	106990	42.1	0
242	106990	42.2	0
242	106990	42.3	0
242	106990	42.4	0
242	106990	42.5	0
242	106990	42.6	0
242	106990	42.7	0
242	106990	42.8	0
242	106990	42.9	0
242	106990	43	0
242	106990	43.1	0
242	106990	43.2	0
242	106990	43.3	0
242	106990	43.4	0
242	106990	43.5	0
242	106990	43.6	0
242	106990	43.7	0
242	106990	43.8	0
242	106990	43.9	0
242	106990	44	0
242	106990	44.1	0
242	106990	44.2	0
242	106990	44.3	0
242	106990	44.4	0
242	106990	44.5	0
242	106990	44.6	0
242	106990	44.7	0
242	106990	44.8	0
242	106990	44.9	0
242	106990	45	0
242	106990	45.1	0
242	106990	45.2	0
242	106990	45.3	0
242	106990	45.4	0
242	106990	45.5	0
242	106990	45.6	0
242	106990	45.7	0
242	106990	45.8	0
242	106990	45.9	0
242	106990	46	0
242	106990	46.1	0
242	106990	46.2	0
242	106990	46.3	0
242	106990	46.4	0
242	106990	46.5	0
242	106990	46.6	0
242	106990	46.7	0
242	106990	46.8	0
242	106990	46.9	0
242	106990	47	0
242	106990	47.1	0
242	106990	47.2	0
242	106990	47.3	0
242	106990	47.4	0
242	106990	47.5	0
242	106990	47.6	0
242	106990	47.7	0
242	106990	47.8	0
242	106990	47.9	0
242	106990	48	0
242	106990	48.1	0
242	106990	48.2	0
242	106990	48.3	0
242	106990	48.4	0
242	106990	48.5	0
242	106990	48.6	0
242	106990	48.7	0
242	106990	48.8	0
242	106990	48.9	0
242	106990	49	0
242	106990	49.1	0
242	106990	49.2	0
242	106990	49.3	0
242	106990	49.4	0
242	106990	49.5	0
242	106990	49.6	0
242	106990	49.7	0
242	106990	49.8	0
242	106990	49.9	0
242	106990	50	0
242	106990	50.1	0
242	106990	50.2	0
242	106990	50.3	0
242	106990	50.4	0
242	106990	50.5	0
242	106990	50.6	0
242	106990	50.7	0
242	106990	50.8	0
242	106990	50.9	0
242	106990	51	0
242	106990	51.1	0
242	106990	51.2	0
242	106990	51.3	0
242	106990	51.4	0
242	106990	51.5	0
242	106990	51.6	0
242	106990	51.7	0
242	106990	51.8	0
242	106990	51.9	0
242	106990	52	0
242	106990	52.1	0
242	106990	52.2	0
242	106990	52.3	0
242	106990	52.4	0
242	106990	52.5	0
242	106990	52.6	0
242	106990	52.7	0
242	106990	52.8	0
242	106990	52.9	0
242	106990	53	0
242	106990	53.1	0
242	106990	53.2	0
242	106990	53.3	0
242	106990	53.4	0
242	106990	53.5	0
242	106990	53.6	0
242	106990	53.7	0
242	106990	53.8	0
242	106990	53.9	0
242	106990	54	0
242	106990	54.1	0
242	106990	54.2	0
242	106990	54.3	0
242	106990	54.4	0
242	106990	54.5	0
242	106990	54.6	0
242	106990	54.7	0
242	106990	54.8	0
242	106990	54.9	0
242	106990	55	0
242	106990	55.1	0
242	106990	55.2	0
242	106990	55.3	0
242	106990	55.4	0
242	106990	55.5	0
242	106990	55.6	0
242	106990	55.7	0
242	106990	55.8	0
242	106990	55.9	0
242	106990	56	0
242	106990	56.1	0
242	106990	56.2	0
242	106990	56.3	0
242	106990	56.4	0
242	106990	56.5	0
242	106990	56.6	0
242	106990	56.7	0
242	106990	56.8	0
242	106990	56.9	0
242	106990	57	0
242	106990	57.1	0
242	106990	57.2	0
242	106990	57.3	0
242	106990	57.4	0
242	106990	57.5	0
242	106990	57.6	0
242	106990	57.7	0
242	106990	57.8	0
242	106990	57.9	0
242	106990	58	0
242	106990	58.1	0
242	106990	58.2	0
242	106990	58.3	0
242	106990	58.4	0
242	106990	58.5	0
242	106990	58.6	0
242	106990	58.7	0
242	106990	58.8	0
242	106990	58.9	0
242	106990	59	0
242	106990	59.1	0
242	106990	59.2	0
242	106990	59.3	0
242	106990	59.4	0
242	106990	59.5	0
242	106990	59.6	0
242	106990	59.7	0
242	106990	59.8	0
242	106990	59.9	0
242	106990	60	0
242	106990	60.1	0
242	106990	60.2	0
242	106990	60.3	0
242	106990	60.4	0
242	106990	60.5	0

