version 2
run AodvRreqFloodingMitigation2Scenario-0-20230518-16:08:16-7274
attr configname AodvRreqFloodingMitigation2Scenario
attr datetime 20230518-16:08:16
attr experiment AodvRreqFloodingMitigation2Scenario
attr inifile omnetpp.ini
attr iterationvars ""
attr iterationvarsf ""
attr measurement ""
attr network Scenario
attr processid 7274
attr repetition 0
attr replication #0
attr resultdir results
attr runnumber 0
attr seedset 0
param *.normal_car[*].routing.isDynamic true
param *.attacker_car[*].routing.floodingTimer 250ms
param *.manager.moduleType "\"normal_car=networkprojectvanet.flooding.flooding_mitigation.SecureAodvCar *=networkprojectvanet.flooding.flooding_attack.AttackerAodvCar\""
param *.manager.moduleDisplayString "\"normal_car='i=veins/node/car,green;is=vs' *='i=veins/node/car,red;is=vs'\""
param *.manager.moduleName "\"normal_car=normal_car *=attacker_car\""
param *.normal_car[*].routing.antiFloodingTimeout 1s
param *.normal_car[*].routing.antiFloodingLimit 6
param *.manager.moduleType "\"normal_car=networkprojectvanet.veins_inet.AodvCar *=networkprojectvanet.flooding.flooding_attack.AttackerAodvCar\""
param *.manager.moduleDisplayString "\"normal_car='i=veins/node/car;is=vs' *='i=veins/node/car,red;is=vs'\""
param *.manager.moduleName "\"normal_car=normal_car *=attacker_car\""
param *.attacker_car[*].numApps 1
param *.attacker_car[*].app[0].typename "\"UdpSink\""
param *.attacker_car[*].app[0].localPort 5000
param *.attacker_car[*].routing.deletePeriod 5s
param *.attacker_car[*].routing.floodingTimer 100ms
param *.attacker_car[*].routing.floodingStart 18.1s
param *.*_car[*].ipv4.arp.typename "\"GlobalArp\""
param *.normal_car[1].numApps 1
param *.normal_car[1].app[0].typename "\"UdpBasicApp\""
param *.normal_car[1].app[0].destAddresses "\"normal_car[6]\""
param *.normal_car[1].app[0].localPort 5000
param *.normal_car[1].app[0].destPort 5000
param *.normal_car[1].app[0].messageLength 1024B
param *.normal_car[1].app[0].sendInterval 1s
param *.normal_car[1].app[0].startTime 20s
param *.normal_car[1].app[0].packetName "\"UDPData\""
param *.normal_car[*].numApps 1
param *.normal_car[*].app[0].typename "\"UdpSink\""
param *.normal_car[*].app[0].localPort 5000
param *.normal_car[*].routing.deletePeriod 5s
param *.*_car[*].wlan[*].typename "\"AckingWirelessInterface\""
param *.*_car[*].wlan[*].bitrate 2Mbps
param *.*_car[*].wlan[*].mac.headerLength 23B
param *.*_car[*].wlan[*].radio.typename "\"UnitDiskRadio\""
param *.*_car[*].wlan[*].radio.transmitter.headerLength 96b
param *.*_car[*].wlan[*].radio.transmitter.communicationRange 70m
param *.*_car[*].wlan[*].radio.transmitter.interferenceRange 0m
param *.*_car[*].wlan[*].radio.transmitter.detectionRange 0m
param *.*_car[*].wlan[*].radio.receiver.ignoreInterference true
param *.*_car[*].ipv4.configurator.typename "\"HostAutoConfigurator\""
param *.*_car[*].ipv4.configurator.interfaces "\"wlan0\""
param *.*_car[*].ipv4.configurator.mcastGroups "\"224.0.0.1\""
param *.*_car[*].mobility.typename "\"VeinsInetMobility\""
param *.manager.updateInterval 0.1s
param *.manager.launchConfig "xmldoc(\"arcavacatamap.launchd.xml\")"
param *.manager.moduleType "\"normal_car=networkprojectvanet.veins_inet.AodvCar *=networkprojectvanet.veins_inet.AodvCar\""
param *.manager.moduleDisplayString "\"normal_car='i=veins/node/car;is=vs' *='i=veins/node/car;is=vs'\""
param *.manager.moduleName "\"normal_car=normal_car *=normal_car\""
param *.*_car[*].wlan[0].radio.displayCommunicationRange true
param *.visualizer.networkRouteVisualizer.displayRoutes true

vector 0 Scenario.normal_car[0].wlan[0].radio radioMode:vector ETV
attr interpolationmode sample-hold
attr source radioModeChanged
attr title "Radio mode, vector"
vector 1 Scenario.normal_car[0].wlan[0].radio receptionState:vector ETV
attr interpolationmode sample-hold
attr source receptionStateChanged
attr title "Radio reception state, vector"
vector 2 Scenario.normal_car[0].wlan[0].radio transmissionState:vector ETV
attr interpolationmode sample-hold
attr source transmissionStateChanged
attr title "Radio transmission state, vector"
vector 3 Scenario.normal_car[1].wlan[0].radio radioMode:vector ETV
attr interpolationmode sample-hold
attr source radioModeChanged
attr title "Radio mode, vector"
vector 4 Scenario.normal_car[1].wlan[0].radio receptionState:vector ETV
attr interpolationmode sample-hold
attr source receptionStateChanged
attr title "Radio reception state, vector"
vector 5 Scenario.normal_car[1].wlan[0].radio transmissionState:vector ETV
attr interpolationmode sample-hold
attr source transmissionStateChanged
attr title "Radio transmission state, vector"
vector 6 Scenario.attacker_car[2].wlan[0].radio radioMode:vector ETV
attr interpolationmode sample-hold
attr source radioModeChanged
attr title "Radio mode, vector"
vector 7 Scenario.attacker_car[2].wlan[0].radio receptionState:vector ETV
attr interpolationmode sample-hold
attr source receptionStateChanged
attr title "Radio reception state, vector"
vector 8 Scenario.attacker_car[2].wlan[0].radio transmissionState:vector ETV
attr interpolationmode sample-hold
attr source transmissionStateChanged
attr title "Radio transmission state, vector"
vector 9 Scenario.normal_car[3].wlan[0].radio radioMode:vector ETV
attr interpolationmode sample-hold
attr source radioModeChanged
attr title "Radio mode, vector"
vector 10 Scenario.normal_car[3].wlan[0].radio receptionState:vector ETV
attr interpolationmode sample-hold
attr source receptionStateChanged
attr title "Radio reception state, vector"
vector 11 Scenario.normal_car[3].wlan[0].radio transmissionState:vector ETV
attr interpolationmode sample-hold
attr source transmissionStateChanged
attr title "Radio transmission state, vector"
vector 12 Scenario.normal_car[4].wlan[0].radio radioMode:vector ETV
attr interpolationmode sample-hold
attr source radioModeChanged
attr title "Radio mode, vector"
vector 13 Scenario.normal_car[4].wlan[0].radio receptionState:vector ETV
attr interpolationmode sample-hold
attr source receptionStateChanged
attr title "Radio reception state, vector"
vector 14 Scenario.normal_car[4].wlan[0].radio transmissionState:vector ETV
attr interpolationmode sample-hold
attr source transmissionStateChanged
attr title "Radio transmission state, vector"
vector 15 Scenario.normal_car[5].wlan[0].radio radioMode:vector ETV
attr interpolationmode sample-hold
attr source radioModeChanged
attr title "Radio mode, vector"
vector 16 Scenario.normal_car[5].wlan[0].radio receptionState:vector ETV
attr interpolationmode sample-hold
attr source receptionStateChanged
attr title "Radio reception state, vector"
vector 17 Scenario.normal_car[5].wlan[0].radio transmissionState:vector ETV
attr interpolationmode sample-hold
attr source transmissionStateChanged
attr title "Radio transmission state, vector"
vector 18 Scenario.normal_car[6].wlan[0].radio radioMode:vector ETV
attr interpolationmode sample-hold
attr source radioModeChanged
attr title "Radio mode, vector"
vector 19 Scenario.normal_car[6].wlan[0].radio receptionState:vector ETV
attr interpolationmode sample-hold
attr source receptionStateChanged
attr title "Radio reception state, vector"
vector 20 Scenario.normal_car[6].wlan[0].radio transmissionState:vector ETV
attr interpolationmode sample-hold
attr source transmissionStateChanged
attr title "Radio transmission state, vector"
vector 21 Scenario.normal_car[7].wlan[0].radio radioMode:vector ETV
attr interpolationmode sample-hold
attr source radioModeChanged
attr title "Radio mode, vector"
vector 22 Scenario.normal_car[7].wlan[0].radio receptionState:vector ETV
attr interpolationmode sample-hold
attr source receptionStateChanged
attr title "Radio reception state, vector"
vector 23 Scenario.normal_car[7].wlan[0].radio transmissionState:vector ETV
attr interpolationmode sample-hold
attr source transmissionStateChanged
attr title "Radio transmission state, vector"
vector 24 Scenario.normal_car[8].wlan[0].radio radioMode:vector ETV
attr interpolationmode sample-hold
attr source radioModeChanged
attr title "Radio mode, vector"
vector 25 Scenario.normal_car[8].wlan[0].radio receptionState:vector ETV
attr interpolationmode sample-hold
attr source receptionStateChanged
attr title "Radio reception state, vector"
vector 26 Scenario.normal_car[8].wlan[0].radio transmissionState:vector ETV
attr interpolationmode sample-hold
attr source transmissionStateChanged
attr title "Radio transmission state, vector"
vector 27 Scenario.normal_car[9].wlan[0].radio radioMode:vector ETV
attr interpolationmode sample-hold
attr source radioModeChanged
attr title "Radio mode, vector"
vector 28 Scenario.normal_car[9].wlan[0].radio receptionState:vector ETV
attr interpolationmode sample-hold
attr source receptionStateChanged
attr title "Radio reception state, vector"
vector 29 Scenario.normal_car[9].wlan[0].radio transmissionState:vector ETV
attr interpolationmode sample-hold
attr source transmissionStateChanged
attr title "Radio transmission state, vector"
vector 30 Scenario.attacker_car[2].udp packetSent:vector(packetBytes) ETV
attr interpolationmode none
attr source packetSent
attr title "packets sent, vector(packetBytes)"
vector 31 Scenario.attacker_car[2].wlan[0].mac rcvdPkFromHl:vector(packetBytes) ETV
attr interpolationmode none
attr source packetReceivedFromUpper
attr title "packets received from higher layer, vector(packetBytes)"
vector 32 Scenario.attacker_car[2].wlan[0].mac.queue packetPushed:vector(packetBytes) ETV
attr interpolationmode none
attr title "packet pushed, vector(packetBytes)"
vector 33 Scenario.attacker_car[2].wlan[0].mac.queue queueLength:vector ETV
attr interpolationmode sample-hold
attr source "count(packetPushed) - count(packetPopped) - count(packetRemoved) - count(packetDropped)"
attr title "queue length, vector"
vector 34 Scenario.attacker_car[2].wlan[0].mac.queue packetPopped:vector(packetBytes) ETV
attr interpolationmode none
attr title "packet popped, vector(packetBytes)"
vector 35 Scenario.attacker_car[2].wlan[0].mac.queue queueingTime:vector ETV
attr interpolationmode none
attr source queueingTime(packetPopped)
attr title "queueing times, vector"
attr unit s
vector 36 Scenario.attacker_car[2].wlan[0].mac sentDownPk:vector(packetBytes) ETV
attr interpolationmode none
attr source packetSentToLower
attr title "packets sent to lower layer, vector(packetBytes)"
vector 37 Scenario.normal_car[4].wlan[0].mac rcvdPkFromLl:vector(packetBytes) ETV
attr interpolationmode none
attr source packetReceivedFromLower
attr title "packets received from lower layer, vector(packetBytes)"
vector 38 Scenario.normal_car[4].wlan[0].mac passedUpPk:vector(packetBytes) ETV
attr interpolationmode none
attr source packetSentToUpper
attr title "packets passed to higher layer, vector(packetBytes)"
vector 39 Scenario.normal_car[4].udp packetReceived:vector(packetBytes) ETV
attr interpolationmode none
attr source packetReceived
attr title "packets received, vector(packetBytes)"
vector 40 Scenario.normal_car[4].udp passedUpPk:vector(count) ETV
attr interpolationmode none
attr source packetSentToUpper
attr title "packets passed up, vector(count)"
vector 41 Scenario.normal_car[1].wlan[0].mac rcvdPkFromLl:vector(packetBytes) ETV
attr interpolationmode none
attr source packetReceivedFromLower
attr title "packets received from lower layer, vector(packetBytes)"
vector 42 Scenario.normal_car[1].wlan[0].mac passedUpPk:vector(packetBytes) ETV
attr interpolationmode none
attr source packetSentToUpper
attr title "packets passed to higher layer, vector(packetBytes)"
vector 43 Scenario.normal_car[1].udp packetReceived:vector(packetBytes) ETV
attr interpolationmode none
attr source packetReceived
attr title "packets received, vector(packetBytes)"
vector 44 Scenario.normal_car[1].udp passedUpPk:vector(count) ETV
attr interpolationmode none
attr source packetSentToUpper
attr title "packets passed up, vector(count)"
vector 45 Scenario.normal_car[4].udp packetSent:vector(packetBytes) ETV
attr interpolationmode none
attr source packetSent
attr title "packets sent, vector(packetBytes)"
vector 46 Scenario.normal_car[4].wlan[0].mac rcvdPkFromHl:vector(packetBytes) ETV
attr interpolationmode none
attr source packetReceivedFromUpper
attr title "packets received from higher layer, vector(packetBytes)"
vector 47 Scenario.normal_car[4].wlan[0].mac.queue packetPushed:vector(packetBytes) ETV
attr interpolationmode none
attr title "packet pushed, vector(packetBytes)"
vector 48 Scenario.normal_car[4].wlan[0].mac.queue queueLength:vector ETV
attr interpolationmode sample-hold
attr source "count(packetPushed) - count(packetPopped) - count(packetRemoved) - count(packetDropped)"
attr title "queue length, vector"
vector 49 Scenario.normal_car[4].wlan[0].mac.queue packetPopped:vector(packetBytes) ETV
attr interpolationmode none
attr title "packet popped, vector(packetBytes)"
vector 50 Scenario.normal_car[4].wlan[0].mac.queue queueingTime:vector ETV
attr interpolationmode none
attr source queueingTime(packetPopped)
attr title "queueing times, vector"
attr unit s
vector 51 Scenario.normal_car[4].wlan[0].mac sentDownPk:vector(packetBytes) ETV
attr interpolationmode none
attr source packetSentToLower
attr title "packets sent to lower layer, vector(packetBytes)"
vector 52 Scenario.normal_car[6].wlan[0].mac rcvdPkFromLl:vector(packetBytes) ETV
attr interpolationmode none
attr source packetReceivedFromLower
attr title "packets received from lower layer, vector(packetBytes)"
vector 53 Scenario.normal_car[6].wlan[0].mac passedUpPk:vector(packetBytes) ETV
attr interpolationmode none
attr source packetSentToUpper
attr title "packets passed to higher layer, vector(packetBytes)"
vector 54 Scenario.normal_car[6].udp packetReceived:vector(packetBytes) ETV
attr interpolationmode none
attr source packetReceived
attr title "packets received, vector(packetBytes)"
vector 55 Scenario.normal_car[6].udp passedUpPk:vector(count) ETV
attr interpolationmode none
attr source packetSentToUpper
attr title "packets passed up, vector(count)"
vector 56 Scenario.attacker_car[2].wlan[0].mac rcvdPkFromLl:vector(packetBytes) ETV
attr interpolationmode none
attr source packetReceivedFromLower
attr title "packets received from lower layer, vector(packetBytes)"
vector 57 Scenario.attacker_car[2].wlan[0].mac passedUpPk:vector(packetBytes) ETV
attr interpolationmode none
attr source packetSentToUpper
attr title "packets passed to higher layer, vector(packetBytes)"
vector 58 Scenario.attacker_car[2].udp packetReceived:vector(packetBytes) ETV
attr interpolationmode none
attr source packetReceived
attr title "packets received, vector(packetBytes)"
vector 59 Scenario.attacker_car[2].udp passedUpPk:vector(count) ETV
attr interpolationmode none
attr source packetSentToUpper
attr title "packets passed up, vector(count)"
vector 60 Scenario.normal_car[1].udp packetSent:vector(packetBytes) ETV
attr interpolationmode none
attr source packetSent
attr title "packets sent, vector(packetBytes)"
vector 61 Scenario.normal_car[1].wlan[0].mac rcvdPkFromHl:vector(packetBytes) ETV
attr interpolationmode none
attr source packetReceivedFromUpper
attr title "packets received from higher layer, vector(packetBytes)"
vector 62 Scenario.normal_car[1].wlan[0].mac.queue packetPushed:vector(packetBytes) ETV
attr interpolationmode none
attr title "packet pushed, vector(packetBytes)"
vector 63 Scenario.normal_car[1].wlan[0].mac.queue queueLength:vector ETV
attr interpolationmode sample-hold
attr source "count(packetPushed) - count(packetPopped) - count(packetRemoved) - count(packetDropped)"
attr title "queue length, vector"
vector 64 Scenario.normal_car[1].wlan[0].mac.queue packetPopped:vector(packetBytes) ETV
attr interpolationmode none
attr title "packet popped, vector(packetBytes)"
vector 65 Scenario.normal_car[1].wlan[0].mac.queue queueingTime:vector ETV
attr interpolationmode none
attr source queueingTime(packetPopped)
attr title "queueing times, vector"
attr unit s
vector 66 Scenario.normal_car[1].wlan[0].mac sentDownPk:vector(packetBytes) ETV
attr interpolationmode none
attr source packetSentToLower
attr title "packets sent to lower layer, vector(packetBytes)"
vector 67 Scenario.normal_car[6].udp packetSent:vector(packetBytes) ETV
attr interpolationmode none
attr source packetSent
attr title "packets sent, vector(packetBytes)"
vector 68 Scenario.normal_car[6].wlan[0].mac rcvdPkFromHl:vector(packetBytes) ETV
attr interpolationmode none
attr source packetReceivedFromUpper
attr title "packets received from higher layer, vector(packetBytes)"
vector 69 Scenario.normal_car[6].wlan[0].mac.queue packetPushed:vector(packetBytes) ETV
attr interpolationmode none
attr title "packet pushed, vector(packetBytes)"
vector 70 Scenario.normal_car[6].wlan[0].mac.queue queueLength:vector ETV
attr interpolationmode sample-hold
attr source "count(packetPushed) - count(packetPopped) - count(packetRemoved) - count(packetDropped)"
attr title "queue length, vector"
vector 71 Scenario.normal_car[6].wlan[0].mac.queue packetPopped:vector(packetBytes) ETV
attr interpolationmode none
attr title "packet popped, vector(packetBytes)"
vector 72 Scenario.normal_car[6].wlan[0].mac.queue queueingTime:vector ETV
attr interpolationmode none
attr source queueingTime(packetPopped)
attr title "queueing times, vector"
attr unit s
vector 73 Scenario.normal_car[6].wlan[0].mac sentDownPk:vector(packetBytes) ETV
attr interpolationmode none
attr source packetSentToLower
attr title "packets sent to lower layer, vector(packetBytes)"
vector 74 Scenario.normal_car[8].wlan[0].mac rcvdPkFromLl:vector(packetBytes) ETV
attr interpolationmode none
attr source packetReceivedFromLower
attr title "packets received from lower layer, vector(packetBytes)"
vector 75 Scenario.normal_car[8].wlan[0].mac passedUpPk:vector(packetBytes) ETV
attr interpolationmode none
attr source packetSentToUpper
attr title "packets passed to higher layer, vector(packetBytes)"
vector 76 Scenario.normal_car[8].udp packetReceived:vector(packetBytes) ETV
attr interpolationmode none
attr source packetReceived
attr title "packets received, vector(packetBytes)"
vector 77 Scenario.normal_car[8].udp passedUpPk:vector(count) ETV
attr interpolationmode none
attr source packetSentToUpper
attr title "packets passed up, vector(count)"
vector 78 Scenario.normal_car[10].wlan[0].radio radioMode:vector ETV
attr interpolationmode sample-hold
attr source radioModeChanged
attr title "Radio mode, vector"
vector 79 Scenario.normal_car[10].wlan[0].radio receptionState:vector ETV
attr interpolationmode sample-hold
attr source receptionStateChanged
attr title "Radio reception state, vector"
vector 80 Scenario.normal_car[10].wlan[0].radio transmissionState:vector ETV
attr interpolationmode sample-hold
attr source transmissionStateChanged
attr title "Radio transmission state, vector"
vector 81 Scenario.normal_car[11].wlan[0].radio radioMode:vector ETV
attr interpolationmode sample-hold
attr source radioModeChanged
attr title "Radio mode, vector"
vector 82 Scenario.normal_car[11].wlan[0].radio receptionState:vector ETV
attr interpolationmode sample-hold
attr source receptionStateChanged
attr title "Radio reception state, vector"
vector 83 Scenario.normal_car[11].wlan[0].radio transmissionState:vector ETV
attr interpolationmode sample-hold
attr source transmissionStateChanged
attr title "Radio transmission state, vector"
vector 84 Scenario.normal_car[10].wlan[0].mac rcvdPkFromLl:vector(packetBytes) ETV
attr interpolationmode none
attr source packetReceivedFromLower
attr title "packets received from lower layer, vector(packetBytes)"
vector 85 Scenario.normal_car[10].wlan[0].mac passedUpPk:vector(packetBytes) ETV
attr interpolationmode none
attr source packetSentToUpper
attr title "packets passed to higher layer, vector(packetBytes)"
vector 86 Scenario.normal_car[10].udp packetReceived:vector(packetBytes) ETV
attr interpolationmode none
attr source packetReceived
attr title "packets received, vector(packetBytes)"
vector 87 Scenario.normal_car[10].udp passedUpPk:vector(count) ETV
attr interpolationmode none
attr source packetSentToUpper
attr title "packets passed up, vector(count)"
vector 88 Scenario.normal_car[1].app[0] packetSent:vector(packetBytes) ETV
attr interpolationmode none
attr source packetSent
attr title "packets sent, vector(packetBytes)"
vector 89 Scenario.normal_car[8].udp packetSent:vector(packetBytes) ETV
attr interpolationmode none
attr source packetSent
attr title "packets sent, vector(packetBytes)"
vector 90 Scenario.normal_car[8].wlan[0].mac rcvdPkFromHl:vector(packetBytes) ETV
attr interpolationmode none
attr source packetReceivedFromUpper
attr title "packets received from higher layer, vector(packetBytes)"
vector 91 Scenario.normal_car[8].wlan[0].mac.queue packetPushed:vector(packetBytes) ETV
attr interpolationmode none
attr title "packet pushed, vector(packetBytes)"
vector 92 Scenario.normal_car[8].wlan[0].mac.queue queueLength:vector ETV
attr interpolationmode sample-hold
attr source "count(packetPushed) - count(packetPopped) - count(packetRemoved) - count(packetDropped)"
attr title "queue length, vector"
vector 93 Scenario.normal_car[8].wlan[0].mac.queue packetPopped:vector(packetBytes) ETV
attr interpolationmode none
attr title "packet popped, vector(packetBytes)"
vector 94 Scenario.normal_car[8].wlan[0].mac.queue queueingTime:vector ETV
attr interpolationmode none
attr source queueingTime(packetPopped)
attr title "queueing times, vector"
attr unit s
vector 95 Scenario.normal_car[8].wlan[0].mac sentDownPk:vector(packetBytes) ETV
attr interpolationmode none
attr source packetSentToLower
attr title "packets sent to lower layer, vector(packetBytes)"
vector 96 Scenario.normal_car[8].wlan[0].mac packetDropNotAddressedToUs:vector(packetBytes) ETV
attr interpolationmode none
attr source packetDropReasonIsNotAddressedToUs(packetDropped)
attr title "packet drop: not addressed to us, vector(packetBytes)"
vector 97 Scenario.normal_car[6].wlan[0].mac packetDropNotAddressedToUs:vector(packetBytes) ETV
attr interpolationmode none
attr source packetDropReasonIsNotAddressedToUs(packetDropped)
attr title "packet drop: not addressed to us, vector(packetBytes)"
vector 98 Scenario.normal_car[4].wlan[0].mac packetDropNotAddressedToUs:vector(packetBytes) ETV
attr interpolationmode none
attr source packetDropReasonIsNotAddressedToUs(packetDropped)
attr title "packet drop: not addressed to us, vector(packetBytes)"
vector 99 Scenario.normal_car[1].wlan[0].mac packetDropNotAddressedToUs:vector(packetBytes) ETV
attr interpolationmode none
attr source packetDropReasonIsNotAddressedToUs(packetDropped)
attr title "packet drop: not addressed to us, vector(packetBytes)"
vector 100 Scenario.normal_car[6].app[0] packetReceived:vector(packetBytes) ETV
attr interpolationmode none
attr source packetReceived
attr title "packets received, vector(packetBytes)"
vector 101 Scenario.normal_car[6].app[0] throughput:vector ETV
attr source throughput(packetReceived)
attr title "throughput, vector"
attr unit bps
vector 102 Scenario.normal_car[6].app[0] endToEndDelay:vector ETV
attr interpolationmode none
attr source dataAge(packetReceived)
attr title "end-to-end delay, vector"
attr unit s
vector 103 Scenario.normal_car[6].app[0] rcvdPkSeqNo:vector ETV
attr interpolationmode none
attr source appPkSeqNo(packetReceived)
attr title "received packet sequence number, vector"
vector 104 Scenario.attacker_car[2].wlan[0].mac packetDropNotAddressedToUs:vector(packetBytes) ETV
attr interpolationmode none
attr source packetDropReasonIsNotAddressedToUs(packetDropped)
attr title "packet drop: not addressed to us, vector(packetBytes)"
vector 105 Scenario.normal_car[12].wlan[0].radio radioMode:vector ETV
attr interpolationmode sample-hold
attr source radioModeChanged
attr title "Radio mode, vector"
vector 106 Scenario.normal_car[12].wlan[0].radio receptionState:vector ETV
attr interpolationmode sample-hold
attr source receptionStateChanged
attr title "Radio reception state, vector"
vector 107 Scenario.normal_car[12].wlan[0].radio transmissionState:vector ETV
attr interpolationmode sample-hold
attr source transmissionStateChanged
attr title "Radio transmission state, vector"
vector 108 Scenario.normal_car[13].wlan[0].radio radioMode:vector ETV
attr interpolationmode sample-hold
attr source radioModeChanged
attr title "Radio mode, vector"
vector 109 Scenario.normal_car[13].wlan[0].radio receptionState:vector ETV
attr interpolationmode sample-hold
attr source receptionStateChanged
attr title "Radio reception state, vector"
vector 110 Scenario.normal_car[13].wlan[0].radio transmissionState:vector ETV
attr interpolationmode sample-hold
attr source transmissionStateChanged
attr title "Radio transmission state, vector"
vector 111 Scenario.normal_car[13].wlan[0].mac rcvdPkFromLl:vector(packetBytes) ETV
attr interpolationmode none
attr source packetReceivedFromLower
attr title "packets received from lower layer, vector(packetBytes)"
vector 112 Scenario.normal_car[13].wlan[0].mac passedUpPk:vector(packetBytes) ETV
attr interpolationmode none
attr source packetSentToUpper
attr title "packets passed to higher layer, vector(packetBytes)"
vector 113 Scenario.normal_car[13].udp packetReceived:vector(packetBytes) ETV
attr interpolationmode none
attr source packetReceived
attr title "packets received, vector(packetBytes)"
vector 114 Scenario.normal_car[13].udp passedUpPk:vector(count) ETV
attr interpolationmode none
attr source packetSentToUpper
attr title "packets passed up, vector(count)"
vector 115 Scenario.normal_car[10].udp packetSent:vector(packetBytes) ETV
attr interpolationmode none
attr source packetSent
attr title "packets sent, vector(packetBytes)"
vector 116 Scenario.normal_car[10].wlan[0].mac rcvdPkFromHl:vector(packetBytes) ETV
attr interpolationmode none
attr source packetReceivedFromUpper
attr title "packets received from higher layer, vector(packetBytes)"
vector 117 Scenario.normal_car[10].wlan[0].mac.queue packetPushed:vector(packetBytes) ETV
attr interpolationmode none
attr title "packet pushed, vector(packetBytes)"
vector 118 Scenario.normal_car[10].wlan[0].mac.queue queueLength:vector ETV
attr interpolationmode sample-hold
attr source "count(packetPushed) - count(packetPopped) - count(packetRemoved) - count(packetDropped)"
attr title "queue length, vector"
vector 119 Scenario.normal_car[10].wlan[0].mac.queue packetPopped:vector(packetBytes) ETV
attr interpolationmode none
attr title "packet popped, vector(packetBytes)"
vector 120 Scenario.normal_car[10].wlan[0].mac.queue queueingTime:vector ETV
attr interpolationmode none
attr source queueingTime(packetPopped)
attr title "queueing times, vector"
attr unit s
vector 121 Scenario.normal_car[10].wlan[0].mac sentDownPk:vector(packetBytes) ETV
attr interpolationmode none
attr source packetSentToLower
attr title "packets sent to lower layer, vector(packetBytes)"
vector 122 Scenario.normal_car[14].wlan[0].radio radioMode:vector ETV
attr interpolationmode sample-hold
attr source radioModeChanged
attr title "Radio mode, vector"
vector 123 Scenario.normal_car[14].wlan[0].radio receptionState:vector ETV
attr interpolationmode sample-hold
attr source receptionStateChanged
attr title "Radio reception state, vector"
vector 124 Scenario.normal_car[14].wlan[0].radio transmissionState:vector ETV
attr interpolationmode sample-hold
attr source transmissionStateChanged
attr title "Radio transmission state, vector"
vector 125 Scenario.normal_car[14].wlan[0].mac rcvdPkFromLl:vector(packetBytes) ETV
attr interpolationmode none
attr source packetReceivedFromLower
attr title "packets received from lower layer, vector(packetBytes)"
vector 126 Scenario.normal_car[14].wlan[0].mac passedUpPk:vector(packetBytes) ETV
attr interpolationmode none
attr source packetSentToUpper
attr title "packets passed to higher layer, vector(packetBytes)"
vector 127 Scenario.normal_car[14].udp packetReceived:vector(packetBytes) ETV
attr interpolationmode none
attr source packetReceived
attr title "packets received, vector(packetBytes)"
vector 128 Scenario.normal_car[14].udp passedUpPk:vector(count) ETV
attr interpolationmode none
attr source packetSentToUpper
attr title "packets passed up, vector(count)"
vector 129 Scenario.normal_car[13].udp packetSent:vector(packetBytes) ETV
attr interpolationmode none
attr source packetSent
attr title "packets sent, vector(packetBytes)"
vector 130 Scenario.normal_car[13].wlan[0].mac rcvdPkFromHl:vector(packetBytes) ETV
attr interpolationmode none
attr source packetReceivedFromUpper
attr title "packets received from higher layer, vector(packetBytes)"
vector 131 Scenario.normal_car[13].wlan[0].mac.queue packetPushed:vector(packetBytes) ETV
attr interpolationmode none
attr title "packet pushed, vector(packetBytes)"
vector 132 Scenario.normal_car[13].wlan[0].mac.queue queueLength:vector ETV
attr interpolationmode sample-hold
attr source "count(packetPushed) - count(packetPopped) - count(packetRemoved) - count(packetDropped)"
attr title "queue length, vector"
vector 133 Scenario.normal_car[13].wlan[0].mac.queue packetPopped:vector(packetBytes) ETV
attr interpolationmode none
attr title "packet popped, vector(packetBytes)"
vector 134 Scenario.normal_car[13].wlan[0].mac.queue queueingTime:vector ETV
attr interpolationmode none
attr source queueingTime(packetPopped)
attr title "queueing times, vector"
attr unit s
vector 135 Scenario.normal_car[13].wlan[0].mac sentDownPk:vector(packetBytes) ETV
attr interpolationmode none
attr source packetSentToLower
attr title "packets sent to lower layer, vector(packetBytes)"
vector 136 Scenario.normal_car[0].wlan[0].mac rcvdPkFromLl:vector(packetBytes) ETV
attr interpolationmode none
attr source packetReceivedFromLower
attr title "packets received from lower layer, vector(packetBytes)"
vector 137 Scenario.normal_car[0].wlan[0].mac passedUpPk:vector(packetBytes) ETV
attr interpolationmode none
attr source packetSentToUpper
attr title "packets passed to higher layer, vector(packetBytes)"
vector 138 Scenario.normal_car[0].udp packetReceived:vector(packetBytes) ETV
attr interpolationmode none
attr source packetReceived
attr title "packets received, vector(packetBytes)"
vector 139 Scenario.normal_car[0].udp passedUpPk:vector(count) ETV
attr interpolationmode none
attr source packetSentToUpper
attr title "packets passed up, vector(count)"
vector 140 Scenario.normal_car[0].udp packetSent:vector(packetBytes) ETV
attr interpolationmode none
attr source packetSent
attr title "packets sent, vector(packetBytes)"
vector 141 Scenario.normal_car[0].wlan[0].mac rcvdPkFromHl:vector(packetBytes) ETV
attr interpolationmode none
attr source packetReceivedFromUpper
attr title "packets received from higher layer, vector(packetBytes)"
vector 142 Scenario.normal_car[0].wlan[0].mac.queue packetPushed:vector(packetBytes) ETV
attr interpolationmode none
attr title "packet pushed, vector(packetBytes)"
vector 143 Scenario.normal_car[0].wlan[0].mac.queue queueLength:vector ETV
attr interpolationmode sample-hold
attr source "count(packetPushed) - count(packetPopped) - count(packetRemoved) - count(packetDropped)"
attr title "queue length, vector"
vector 144 Scenario.normal_car[0].wlan[0].mac.queue packetPopped:vector(packetBytes) ETV
attr interpolationmode none
attr title "packet popped, vector(packetBytes)"
vector 145 Scenario.normal_car[0].wlan[0].mac.queue queueingTime:vector ETV
attr interpolationmode none
attr source queueingTime(packetPopped)
attr title "queueing times, vector"
attr unit s
vector 146 Scenario.normal_car[0].wlan[0].mac sentDownPk:vector(packetBytes) ETV
attr interpolationmode none
attr source packetSentToLower
attr title "packets sent to lower layer, vector(packetBytes)"
vector 147 Scenario.normal_car[3].wlan[0].mac rcvdPkFromLl:vector(packetBytes) ETV
attr interpolationmode none
attr source packetReceivedFromLower
attr title "packets received from lower layer, vector(packetBytes)"
vector 148 Scenario.normal_car[3].wlan[0].mac passedUpPk:vector(packetBytes) ETV
attr interpolationmode none
attr source packetSentToUpper
attr title "packets passed to higher layer, vector(packetBytes)"
vector 149 Scenario.normal_car[3].udp packetReceived:vector(packetBytes) ETV
attr interpolationmode none
attr source packetReceived
attr title "packets received, vector(packetBytes)"
vector 150 Scenario.normal_car[3].udp passedUpPk:vector(count) ETV
attr interpolationmode none
attr source packetSentToUpper
attr title "packets passed up, vector(count)"
vector 151 Scenario.normal_car[3].udp packetSent:vector(packetBytes) ETV
attr interpolationmode none
attr source packetSent
attr title "packets sent, vector(packetBytes)"
vector 152 Scenario.normal_car[3].wlan[0].mac rcvdPkFromHl:vector(packetBytes) ETV
attr interpolationmode none
attr source packetReceivedFromUpper
attr title "packets received from higher layer, vector(packetBytes)"
vector 153 Scenario.normal_car[3].wlan[0].mac.queue packetPushed:vector(packetBytes) ETV
attr interpolationmode none
attr title "packet pushed, vector(packetBytes)"
vector 154 Scenario.normal_car[3].wlan[0].mac.queue queueLength:vector ETV
attr interpolationmode sample-hold
attr source "count(packetPushed) - count(packetPopped) - count(packetRemoved) - count(packetDropped)"
attr title "queue length, vector"
vector 155 Scenario.normal_car[3].wlan[0].mac.queue packetPopped:vector(packetBytes) ETV
attr interpolationmode none
attr title "packet popped, vector(packetBytes)"
vector 156 Scenario.normal_car[3].wlan[0].mac.queue queueingTime:vector ETV
attr interpolationmode none
attr source queueingTime(packetPopped)
attr title "queueing times, vector"
attr unit s
vector 157 Scenario.normal_car[3].wlan[0].mac sentDownPk:vector(packetBytes) ETV
attr interpolationmode none
attr source packetSentToLower
attr title "packets sent to lower layer, vector(packetBytes)"
vector 158 Scenario.normal_car[5].wlan[0].mac rcvdPkFromLl:vector(packetBytes) ETV
attr interpolationmode none
attr source packetReceivedFromLower
attr title "packets received from lower layer, vector(packetBytes)"
vector 159 Scenario.normal_car[5].wlan[0].mac passedUpPk:vector(packetBytes) ETV
attr interpolationmode none
attr source packetSentToUpper
attr title "packets passed to higher layer, vector(packetBytes)"
vector 160 Scenario.normal_car[5].udp packetReceived:vector(packetBytes) ETV
attr interpolationmode none
attr source packetReceived
attr title "packets received, vector(packetBytes)"
vector 161 Scenario.normal_car[5].udp passedUpPk:vector(count) ETV
attr interpolationmode none
attr source packetSentToUpper
attr title "packets passed up, vector(count)"
vector 162 Scenario.normal_car[5].udp packetSent:vector(packetBytes) ETV
attr interpolationmode none
attr source packetSent
attr title "packets sent, vector(packetBytes)"
vector 163 Scenario.normal_car[5].wlan[0].mac rcvdPkFromHl:vector(packetBytes) ETV
attr interpolationmode none
attr source packetReceivedFromUpper
attr title "packets received from higher layer, vector(packetBytes)"
vector 164 Scenario.normal_car[5].wlan[0].mac.queue packetPushed:vector(packetBytes) ETV
attr interpolationmode none
attr title "packet pushed, vector(packetBytes)"
vector 165 Scenario.normal_car[5].wlan[0].mac.queue queueLength:vector ETV
attr interpolationmode sample-hold
attr source "count(packetPushed) - count(packetPopped) - count(packetRemoved) - count(packetDropped)"
attr title "queue length, vector"
vector 166 Scenario.normal_car[5].wlan[0].mac.queue packetPopped:vector(packetBytes) ETV
attr interpolationmode none
attr title "packet popped, vector(packetBytes)"
vector 167 Scenario.normal_car[5].wlan[0].mac.queue queueingTime:vector ETV
attr interpolationmode none
attr source queueingTime(packetPopped)
attr title "queueing times, vector"
attr unit s
vector 168 Scenario.normal_car[5].wlan[0].mac sentDownPk:vector(packetBytes) ETV
attr interpolationmode none
attr source packetSentToLower
attr title "packets sent to lower layer, vector(packetBytes)"
vector 169 Scenario.normal_car[7].wlan[0].mac rcvdPkFromLl:vector(packetBytes) ETV
attr interpolationmode none
attr source packetReceivedFromLower
attr title "packets received from lower layer, vector(packetBytes)"
vector 170 Scenario.normal_car[7].wlan[0].mac passedUpPk:vector(packetBytes) ETV
attr interpolationmode none
attr source packetSentToUpper
attr title "packets passed to higher layer, vector(packetBytes)"
vector 171 Scenario.normal_car[7].udp packetReceived:vector(packetBytes) ETV
attr interpolationmode none
attr source packetReceived
attr title "packets received, vector(packetBytes)"
vector 172 Scenario.normal_car[7].udp passedUpPk:vector(count) ETV
attr interpolationmode none
attr source packetSentToUpper
attr title "packets passed up, vector(count)"
vector 173 Scenario.normal_car[7].udp packetSent:vector(packetBytes) ETV
attr interpolationmode none
attr source packetSent
attr title "packets sent, vector(packetBytes)"
vector 174 Scenario.normal_car[7].wlan[0].mac rcvdPkFromHl:vector(packetBytes) ETV
attr interpolationmode none
attr source packetReceivedFromUpper
attr title "packets received from higher layer, vector(packetBytes)"
vector 175 Scenario.normal_car[7].wlan[0].mac.queue packetPushed:vector(packetBytes) ETV
attr interpolationmode none
attr title "packet pushed, vector(packetBytes)"
vector 176 Scenario.normal_car[7].wlan[0].mac.queue queueLength:vector ETV
attr interpolationmode sample-hold
attr source "count(packetPushed) - count(packetPopped) - count(packetRemoved) - count(packetDropped)"
attr title "queue length, vector"
vector 177 Scenario.normal_car[7].wlan[0].mac.queue packetPopped:vector(packetBytes) ETV
attr interpolationmode none
attr title "packet popped, vector(packetBytes)"
vector 178 Scenario.normal_car[7].wlan[0].mac.queue queueingTime:vector ETV
attr interpolationmode none
attr source queueingTime(packetPopped)
attr title "queueing times, vector"
attr unit s
vector 179 Scenario.normal_car[7].wlan[0].mac sentDownPk:vector(packetBytes) ETV
attr interpolationmode none
attr source packetSentToLower
attr title "packets sent to lower layer, vector(packetBytes)"
vector 180 Scenario.normal_car[9].wlan[0].mac rcvdPkFromLl:vector(packetBytes) ETV
attr interpolationmode none
attr source packetReceivedFromLower
attr title "packets received from lower layer, vector(packetBytes)"
vector 181 Scenario.normal_car[9].wlan[0].mac passedUpPk:vector(packetBytes) ETV
attr interpolationmode none
attr source packetSentToUpper
attr title "packets passed to higher layer, vector(packetBytes)"
vector 182 Scenario.normal_car[9].udp packetReceived:vector(packetBytes) ETV
attr interpolationmode none
attr source packetReceived
attr title "packets received, vector(packetBytes)"
vector 183 Scenario.normal_car[9].udp passedUpPk:vector(count) ETV
attr interpolationmode none
attr source packetSentToUpper
attr title "packets passed up, vector(count)"
vector 184 Scenario.normal_car[9].udp packetSent:vector(packetBytes) ETV
attr interpolationmode none
attr source packetSent
attr title "packets sent, vector(packetBytes)"
vector 185 Scenario.normal_car[9].wlan[0].mac rcvdPkFromHl:vector(packetBytes) ETV
attr interpolationmode none
attr source packetReceivedFromUpper
attr title "packets received from higher layer, vector(packetBytes)"
vector 186 Scenario.normal_car[9].wlan[0].mac.queue packetPushed:vector(packetBytes) ETV
attr interpolationmode none
attr title "packet pushed, vector(packetBytes)"
vector 187 Scenario.normal_car[9].wlan[0].mac.queue queueLength:vector ETV
attr interpolationmode sample-hold
attr source "count(packetPushed) - count(packetPopped) - count(packetRemoved) - count(packetDropped)"
attr title "queue length, vector"
vector 188 Scenario.normal_car[9].wlan[0].mac.queue packetPopped:vector(packetBytes) ETV
attr interpolationmode none
attr title "packet popped, vector(packetBytes)"
vector 189 Scenario.normal_car[9].wlan[0].mac.queue queueingTime:vector ETV
attr interpolationmode none
attr source queueingTime(packetPopped)
attr title "queueing times, vector"
attr unit s
vector 190 Scenario.normal_car[9].wlan[0].mac sentDownPk:vector(packetBytes) ETV
attr interpolationmode none
attr source packetSentToLower
attr title "packets sent to lower layer, vector(packetBytes)"
vector 191 Scenario.normal_car[11].wlan[0].mac rcvdPkFromLl:vector(packetBytes) ETV
attr interpolationmode none
attr source packetReceivedFromLower
attr title "packets received from lower layer, vector(packetBytes)"
vector 192 Scenario.normal_car[11].wlan[0].mac passedUpPk:vector(packetBytes) ETV
attr interpolationmode none
attr source packetSentToUpper
attr title "packets passed to higher layer, vector(packetBytes)"
vector 193 Scenario.normal_car[11].udp packetReceived:vector(packetBytes) ETV
attr interpolationmode none
attr source packetReceived
attr title "packets received, vector(packetBytes)"
vector 194 Scenario.normal_car[11].udp passedUpPk:vector(count) ETV
attr interpolationmode none
attr source packetSentToUpper
attr title "packets passed up, vector(count)"
vector 195 Scenario.normal_car[11].udp packetSent:vector(packetBytes) ETV
attr interpolationmode none
attr source packetSent
attr title "packets sent, vector(packetBytes)"
vector 196 Scenario.normal_car[11].wlan[0].mac rcvdPkFromHl:vector(packetBytes) ETV
attr interpolationmode none
attr source packetReceivedFromUpper
attr title "packets received from higher layer, vector(packetBytes)"
vector 197 Scenario.normal_car[11].wlan[0].mac.queue packetPushed:vector(packetBytes) ETV
attr interpolationmode none
attr title "packet pushed, vector(packetBytes)"
vector 198 Scenario.normal_car[11].wlan[0].mac.queue queueLength:vector ETV
attr interpolationmode sample-hold
attr source "count(packetPushed) - count(packetPopped) - count(packetRemoved) - count(packetDropped)"
attr title "queue length, vector"
vector 199 Scenario.normal_car[11].wlan[0].mac.queue packetPopped:vector(packetBytes) ETV
attr interpolationmode none
attr title "packet popped, vector(packetBytes)"
vector 200 Scenario.normal_car[11].wlan[0].mac.queue queueingTime:vector ETV
attr interpolationmode none
attr source queueingTime(packetPopped)
attr title "queueing times, vector"
attr unit s
vector 201 Scenario.normal_car[11].wlan[0].mac sentDownPk:vector(packetBytes) ETV
attr interpolationmode none
attr source packetSentToLower
attr title "packets sent to lower layer, vector(packetBytes)"
vector 202 Scenario.normal_car[12].wlan[0].mac rcvdPkFromLl:vector(packetBytes) ETV
attr interpolationmode none
attr source packetReceivedFromLower
attr title "packets received from lower layer, vector(packetBytes)"
vector 203 Scenario.normal_car[12].wlan[0].mac passedUpPk:vector(packetBytes) ETV
attr interpolationmode none
attr source packetSentToUpper
attr title "packets passed to higher layer, vector(packetBytes)"
vector 204 Scenario.normal_car[12].udp packetReceived:vector(packetBytes) ETV
attr interpolationmode none
attr source packetReceived
attr title "packets received, vector(packetBytes)"
vector 205 Scenario.normal_car[12].udp passedUpPk:vector(count) ETV
attr interpolationmode none
attr source packetSentToUpper
attr title "packets passed up, vector(count)"
vector 206 Scenario.normal_car[12].udp packetSent:vector(packetBytes) ETV
attr interpolationmode none
attr source packetSent
attr title "packets sent, vector(packetBytes)"
vector 207 Scenario.normal_car[12].wlan[0].mac rcvdPkFromHl:vector(packetBytes) ETV
attr interpolationmode none
attr source packetReceivedFromUpper
attr title "packets received from higher layer, vector(packetBytes)"
vector 208 Scenario.normal_car[12].wlan[0].mac.queue packetPushed:vector(packetBytes) ETV
attr interpolationmode none
attr title "packet pushed, vector(packetBytes)"
vector 209 Scenario.normal_car[12].wlan[0].mac.queue queueLength:vector ETV
attr interpolationmode sample-hold
attr source "count(packetPushed) - count(packetPopped) - count(packetRemoved) - count(packetDropped)"
attr title "queue length, vector"
vector 210 Scenario.normal_car[12].wlan[0].mac.queue packetPopped:vector(packetBytes) ETV
attr interpolationmode none
attr title "packet popped, vector(packetBytes)"
vector 211 Scenario.normal_car[12].wlan[0].mac.queue queueingTime:vector ETV
attr interpolationmode none
attr source queueingTime(packetPopped)
attr title "queueing times, vector"
attr unit s
vector 212 Scenario.normal_car[12].wlan[0].mac sentDownPk:vector(packetBytes) ETV
attr interpolationmode none
attr source packetSentToLower
attr title "packets sent to lower layer, vector(packetBytes)"
vector 213 Scenario.normal_car[0].wlan[0].mac packetDropNotAddressedToUs:vector(packetBytes) ETV
attr interpolationmode none
attr source packetDropReasonIsNotAddressedToUs(packetDropped)
attr title "packet drop: not addressed to us, vector(packetBytes)"
vector 214 Scenario.normal_car[3].wlan[0].mac packetDropNotAddressedToUs:vector(packetBytes) ETV
attr interpolationmode none
attr source packetDropReasonIsNotAddressedToUs(packetDropped)
attr title "packet drop: not addressed to us, vector(packetBytes)"
vector 215 Scenario.normal_car[14].udp packetSent:vector(packetBytes) ETV
attr interpolationmode none
attr source packetSent
attr title "packets sent, vector(packetBytes)"
vector 216 Scenario.normal_car[14].wlan[0].mac rcvdPkFromHl:vector(packetBytes) ETV
attr interpolationmode none
attr source packetReceivedFromUpper
attr title "packets received from higher layer, vector(packetBytes)"
vector 217 Scenario.normal_car[14].wlan[0].mac.queue packetPushed:vector(packetBytes) ETV
attr interpolationmode none
attr title "packet pushed, vector(packetBytes)"
vector 218 Scenario.normal_car[14].wlan[0].mac.queue queueLength:vector ETV
attr interpolationmode sample-hold
attr source "count(packetPushed) - count(packetPopped) - count(packetRemoved) - count(packetDropped)"
attr title "queue length, vector"
vector 219 Scenario.normal_car[14].wlan[0].mac.queue packetPopped:vector(packetBytes) ETV
attr interpolationmode none
attr title "packet popped, vector(packetBytes)"
vector 220 Scenario.normal_car[14].wlan[0].mac.queue queueingTime:vector ETV
attr interpolationmode none
attr source queueingTime(packetPopped)
attr title "queueing times, vector"
attr unit s
vector 221 Scenario.normal_car[14].wlan[0].mac sentDownPk:vector(packetBytes) ETV
attr interpolationmode none
attr source packetSentToLower
attr title "packets sent to lower layer, vector(packetBytes)"
vector 222 Scenario.normal_car[5].wlan[0].mac packetDropNotAddressedToUs:vector(packetBytes) ETV
attr interpolationmode none
attr source packetDropReasonIsNotAddressedToUs(packetDropped)
attr title "packet drop: not addressed to us, vector(packetBytes)"
vector 223 Scenario.normal_car[7].wlan[0].mac packetDropNotAddressedToUs:vector(packetBytes) ETV
attr interpolationmode none
attr source packetDropReasonIsNotAddressedToUs(packetDropped)
attr title "packet drop: not addressed to us, vector(packetBytes)"
vector 224 Scenario.normal_car[9].wlan[0].mac packetDropNotAddressedToUs:vector(packetBytes) ETV
attr interpolationmode none
attr source packetDropReasonIsNotAddressedToUs(packetDropped)
attr title "packet drop: not addressed to us, vector(packetBytes)"
vector 225 Scenario.normal_car[11].wlan[0].mac packetDropNotAddressedToUs:vector(packetBytes) ETV
attr interpolationmode none
attr source packetDropReasonIsNotAddressedToUs(packetDropped)
attr title "packet drop: not addressed to us, vector(packetBytes)"
vector 226 Scenario.normal_car[12].wlan[0].mac packetDropNotAddressedToUs:vector(packetBytes) ETV
attr interpolationmode none
attr source packetDropReasonIsNotAddressedToUs(packetDropped)
attr title "packet drop: not addressed to us, vector(packetBytes)"
vector 227 Scenario.normal_car[0].app[0] throughput:vector ETV
attr source throughput(packetReceived)
attr title "throughput, vector"
attr unit bps
vector 228 Scenario.normal_car[1].app[0] throughput:vector ETV
attr source throughput(packetReceived)
attr title "throughput, vector"
attr unit bps
vector 229 Scenario.attacker_car[2].app[0] throughput:vector ETV
attr source throughput(packetReceived)
attr title "throughput, vector"
attr unit bps
vector 230 Scenario.normal_car[3].app[0] throughput:vector ETV
attr source throughput(packetReceived)
attr title "throughput, vector"
attr unit bps
vector 231 Scenario.normal_car[4].app[0] throughput:vector ETV
attr source throughput(packetReceived)
attr title "throughput, vector"
attr unit bps
vector 232 Scenario.normal_car[5].app[0] throughput:vector ETV
attr source throughput(packetReceived)
attr title "throughput, vector"
attr unit bps
vector 233 Scenario.normal_car[7].app[0] throughput:vector ETV
attr source throughput(packetReceived)
attr title "throughput, vector"
attr unit bps
vector 234 Scenario.normal_car[8].app[0] throughput:vector ETV
attr source throughput(packetReceived)
attr title "throughput, vector"
attr unit bps
vector 235 Scenario.normal_car[9].app[0] throughput:vector ETV
attr source throughput(packetReceived)
attr title "throughput, vector"
attr unit bps
vector 236 Scenario.normal_car[10].app[0] throughput:vector ETV
attr source throughput(packetReceived)
attr title "throughput, vector"
attr unit bps
vector 237 Scenario.normal_car[11].app[0] throughput:vector ETV
attr source throughput(packetReceived)
attr title "throughput, vector"
attr unit bps
vector 238 Scenario.normal_car[12].app[0] throughput:vector ETV
attr source throughput(packetReceived)
attr title "throughput, vector"
attr unit bps
vector 239 Scenario.normal_car[13].app[0] throughput:vector ETV
attr source throughput(packetReceived)
attr title "throughput, vector"
attr unit bps
vector 240 Scenario.normal_car[14].app[0] throughput:vector ETV
attr source throughput(packetReceived)
attr title "throughput, vector"
attr unit bps
0	2	0.1	0
0	2	0.1	0
0	2	0.1	4
1	2	0.1	1
1	10282	28.105904546996	3
1	10320	28.106252546996	1
1	10470	28.112988940496	3
1	10489	28.113336940496	1
1	10868	28.356481252417	3
1	10906	28.356829252417	1
1	11120	28.363932365155	3
1	11159	28.364280365155	1
1	11546	28.605157079366	3
1	11607	28.605505079366	1
1	11729	28.611087347938	3
1	11748	28.611435347938	1
1	12148	28.856152511226	3
1	12190	28.856500511226	1
1	12297	28.86028298931	3
1	12316	28.86063098931	1
1	12647	29.00000015152	3
1	12662	29.00434815152	1
1	12864	29.105754810011	3
1	12879	29.106102810011	1
1	13034	29.112721760696	3
1	13053	29.113069760696	1
1	13436	29.356900229572	3
1	13451	29.357248229572	1
1	13691	29.36447878723	3
1	13710	29.36482678723	1
1	14008	29.606729908734	3
1	14023	29.607077908734	1
1	14139	29.608292234624	3
1	14158	29.608640234624	1
1	14577	29.85025317213	3
1	14604	29.85060117213	1
1	14670	29.852428662617	3
1	14685	29.852776662617	1
1	14758	29.855311680812	3
1	14796	29.855659680812	1
1	15196	30.00000005978	3
1	15211	30.00434805978	1
1	15224	30.004348381055	3
1	15249	30.008696381055	1
1	15283	30.102605391589	3
1	15306	30.102953391589	1
1	15331	30.10322508908	3
1	15346	30.10357308908	1
1	15443	30.104470892603	3
1	15504	30.104818892603	1
1	15909	30.354640599379	3
1	15932	30.354988599379	1
1	16087	30.358510678082	3
1	16102	30.358858678082	1
1	16134	30.359143701407	3
1	16172	30.359491701407	1
1	16536	30.604671238737	3
1	16558	30.605019238737	1
1	16695	30.60841470304	3
1	16737	30.60876270304	1
1	16761	30.611386973411	3
1	16780	30.611734973411	1
1	17164	30.851049370982	3
1	17183	30.851397370982	1
1	17232	30.852491154437	3
1	17293	30.852839154437	1
1	17337	30.855524559368	3
1	17360	30.855872559368	1
1	17779	31.000000035772	3
1	17794	31.004348035772	1
1	17806	31.0043483066	3
1	17832	31.0086963066	1
1	17863	31.100282218633	3
1	17878	31.100630218633	1
1	17913	31.102189287512	3
1	17928	31.102537287512	1
1	18095	31.106019273693	3
1	18118	31.106367273693	1
1	18490	31.353719282281	3
1	18505	31.354067282281	1
1	18544	31.356335892345	3
1	18578	31.356683892345	1
1	18718	31.359367020752	3
1	18741	31.359715020752	1
1	19157	31.601316694962	3
1	19172	31.601664694962	1
1	19209	31.601768230038	3
1	19232	31.602116230038	1
1	19304	31.602810972545	3
1	19323	31.603158972545	1
1	19401	31.607107081196	3
1	19443	31.607455081196	1
1	19836	31.850000341962	3
1	19851	31.850348341962	1
1	19887	31.851716270222	3
1	19925	31.852064270222	2
1	19957	31.852255931291	1
1	19976	31.85419166905	3
1	19999	31.85453966905	1
1	20507	32.000000127564	3
1	20523	32.004348127564	1
1	20532	32.004348222215	3
1	20557	32.008696222215	1
1	20592	32.104348213249	3
1	20607	32.104696213249	1
1	20644	32.105763129943	3
1	20686	32.106111129943	2
1	20712	32.106264948797	3
1	20754	32.106612948797	1
1	20784	32.108002492262	3
1	20799	32.108334492262	1
1	21317	32.353231343237	3
1	21332	32.353579343237	1
1	21373	32.354511990565	3
1	21415	32.354859990565	2
1	21441	32.354967796569	3
1	21483	32.355315796569	1
1	22007	32.603584313016	3
1	22022	32.603932313016	1
1	22058	32.605912915727	3
1	22096	32.606260915727	2
1	22133	32.606596399157	1
1	22152	32.606759763825	3
1	22179	32.607107763825	1
1	22678	32.850152294939	3
1	22696	32.850500294939	1
1	22734	32.850963622871	3
1	22761	32.851311622871	1
1	22784	32.854235567185	3
1	22849	32.854583567185	2
1	22870	32.854591891869	1
1	22963	32.855679329864	3
1	23005	32.856027329864	1
1	23365	33.001434793971	3
1	23392	33.001782793971	1
1	23431	33.002284269179	3
1	23499	33.002632269179	2
1	23522	33.002778426992	1
1	23542	33.002986938064	3
1	23569	33.003334938064	1
1	23646	33.100082204866	3
1	23661	33.100430204866	1
1	23697	33.100476641442	3
1	23716	33.100824641442	1
1	23804	33.103780135077	3
1	23831	33.104128135077	1
1	23876	33.104990024696	3
1	23941	33.105338024696	2
1	23973	33.105426097543	1
1	24037	33.107368067885	3
1	24060	33.107732067885	1
1	24434	33.328268104633	3
1	24449	33.328616104633	1
1	24487	33.329173431682	3
1	24514	33.329521431682	1
1	24554	33.329708325773	3
1	24604	33.330056325773	1
1	24622	33.330056522332	3
1	24667	33.330388522332	1
1	24899	33.35474666892	3
1	24914	33.35509466892	1
1	25000	33.359090888742	3
1	25019	33.359438888742	1
1	25052	33.359801766432	3
1	25079	33.360149766432	1
1	25147	33.362591324979	3
1	25170	33.362939324979	1
1	25646	33.600066285598	3
1	25665	33.600414285598	1
1	25695	33.601155152056	3
1	25710	33.601503152056	1
1	25848	33.605285732665	3
1	25894	33.605633732665	2
1	25920	33.605753485257	1
1	26485	33.804541869684	3
1	26512	33.804889869684	1
1	26575	33.806511344905	3
1	26594	33.806859344905	1
1	26671	33.807243864983	3
1	26715	33.807575864983	2
1	26732	33.807810761867	1
1	26854	33.811565407611	3
1	26869	33.811913407611	1
1	26907	33.812381074267	3
1	26940	33.812729074267	1
1	27032	33.813845867899	3
1	27051	33.814193867899	1
1	27105	33.854864716348	3
1	27124	33.855212716348	1
1	27161	33.856930860986	3
1	27207	33.857278860986	1
1	27254	33.859745625818	3
1	27288	33.860093625818	1
1	27413	33.861890184309	3
1	27459	33.862238184309	1
1	27859	34.101626696585	3
1	27878	34.101974696585	1
1	27931	34.102044525034	3
1	27996	34.102392525034	2
1	28030	34.102589895399	1
1	28274	34.106245630584	3
1	28297	34.106593630584	1
1	28595	34.133632815259	3
1	28614	34.133980815259	1
1	28653	34.134566775407	3
1	28680	34.134914775407	1
1	28760	34.13643186076	3
1	28847	34.13676386076	2
1	28894	34.136805896265	1
1	29192	34.236914622439	3
1	29211	34.237246622439	1
1	29298	34.240067081821	3
1	29325	34.240399081821	1
1	29357	34.351280860398	3
1	29376	34.351628860398	1
1	29463	34.352286302621	3
1	29490	34.352634302621	1
1	29533	34.354011302429	3
1	29579	34.354359302429	1
1	29716	34.355670094519	3
1	29739	34.356018094519	1
1	29763	34.356652261209	3
1	29790	34.357000261209	1
1	30303	34.449195711525	3
1	30322	34.449543711525	1
1	30402	34.45017619342	3
1	30447	34.45050819342	1
1	30494	34.452706549999	3
1	30540	34.453054549999	2
1	30560	34.453191951893	1
1	30594	34.453661362285	3
1	30621	34.454009362285	1
1	30791	34.603406984046	3
1	30818	34.603754984046	1
1	30842	34.60410429545	3
1	30857	34.60445229545	1
1	30899	34.604501115237	3
1	30945	34.604849115237	1
1	30998	34.605052097626	3
1	31021	34.605400097626	1
1	31213	34.607390488329	3
1	31259	34.607738488329	1
1	31554	34.616125737095	3
1	31590	34.616473737095	1
1	31683	34.617190834395	3
1	31721	34.617522834395	2
1	31756	34.617595182483	1
1	31789	34.617670590897	3
1	31830	34.618018590897	1
1	31903	34.717855228101	3
1	31932	34.718187228101	1
1	32116	34.720481205167	3
1	32141	34.720781205167	1
1	32251	34.851534255695	3
1	32282	34.851882255695	1
1	32301	34.853955102517	3
1	32316	34.854303102517	1
1	32358	34.854324306101	3
1	32385	34.854672306101	1
1	32459	34.855173834503	3
1	32498	34.855521834503	1
1	32616	34.857531310958	3
1	32639	34.857879310958	1
1	33132	35.101388209915	3
1	33163	35.101736209915	1
1	33237	35.103364643468	3
1	33290	35.103712643468	1
1	33373	35.104432329796	3
1	33434	35.104780329796	2
1	33484	35.104996613595	1
1	34003	35.334043226106	3
1	34026	35.334391226106	1
1	34046	35.33439133726	3
1	34088	35.33472333726	1
1	34159	35.336718802773	3
1	34199	35.337050802773	1
1	34446	35.354845888613	3
1	34461	35.355193888613	1
1	34504	35.355747179873	3
1	34781	35.360095179873	1
1	34796	35.360095404889	3
1	34863	35.360443404889	1
1	35176	35.605494565249	3
1	35191	35.605842565249	1
1	35380	35.608797557841	3
1	35414	35.609145557841	2
1	35451	35.609474064326	1
1	35542	35.610611422049	3
1	35592	35.610959422049	1
1	35909	35.855451564134	3
1	35932	35.855799564134	1
1	35961	35.856224623225	3
1	35976	35.856572623225	1
1	36035	35.857369872506	3
1	36077	35.857717872506	1
1	36159	35.859207627664	3
1	36178	35.859555627664	1
1	36688	36.013044527437	3
1	36713	36.017392527437	1
1	36908	36.106223687056	3
1	36969	36.106571687056	2
1	37026	36.106644401332	1
1	37067	36.107170566986	3
1	37113	36.107518566986	1
1	37195	36.108863992236	3
1	37214	36.109211992236	1
1	37588	36.353955864174	3
1	37630	36.354303864174	1
1	37784	36.355920954729	3
1	37807	36.356268954729	1
1	37840	36.35672927319	3
1	37874	36.35707727319	1
1	37909	36.357349761398	3
1	37955	36.357697761398	1
1	38015	36.359348344573	3
1	38088	36.359696344573	1
1	38434	36.603853338463	3
1	38457	36.604201338463	1
1	38490	36.60427937307	3
1	38509	36.60462737307	1
1	38569	36.604978586528	3
1	38619	36.605326586528	1
1	38694	36.606345477994	3
1	38709	36.606693477994	1
1	38804	36.607876926661	3
1	38827	36.608224926661	1
1	39047	36.852109447409	3
1	39070	36.852457447409	1
1	39209	36.853443421345	3
1	39232	36.853791421345	1
1	39257	36.854338584625	3
1	39295	36.854686584625	1
1	39361	36.85491271726	3
1	39395	36.85526071726	1
1	39437	36.855309623626	3
1	39483	36.855657623626	1
1	39847	37.013044561374	3
1	39875	37.017392561374	1
1	40061	37.106551262982	3
1	40126	37.106899262982	2
1	40152	37.107091523277	1
1	40284	37.108932159874	3
1	40299	37.109280159874	1
1	40334	37.110099388224	3
1	40368	37.110447388224	1
1	40483	37.113196539763	3
1	40506	37.113544539763	1
1	40783	37.354013167532	3
1	40848	37.354361167532	1
1	41012	37.357690464063	3
1	41035	37.358038464063	1
1	41064	37.358995568884	3
1	41079	37.359343568884	1
1	41119	37.359416460033	3
1	41138	37.359764460033	1
1	41207	37.361565543865	3
1	41222	37.361913543865	1
1	41491	37.605474816632	3
1	41545	37.605822816632	1
1	41757	37.608216930086	3
1	41776	37.608564930086	1
1	41807	37.609807839977	3
1	41845	37.610155839977	2
1	41879	37.610322423196	1
1	41904	37.610509067606	3
1	41927	37.610857067606	1
1	42157	37.853880022541	3
1	42188	37.854228022541	1
1	42259	37.856136831914	3
1	42278	37.856484831914	1
1	42534	37.859155484425	3
1	42603	37.859503484425	1
1	42648	37.860970417314	3
1	42686	37.861318417314	2
1	42712	37.861357652458	1
1	43244	38.106211512201	3
1	43336	38.106559512201	1
1	43404	38.107128800094	3
1	43423	38.107476800094	1
1	43458	38.107734159668	3
1	43477	38.108082159668	1
1	43565	38.111143209841	3
1	43581	38.111491209841	1
1	44058	38.357330457843	3
1	44100	38.357678457843	2
1	44135	38.358021813559	1
1	44152	38.35853777668	3
1	44167	38.35888577668	1
1	44241	38.359925106214	3
1	44279	38.360273106214	1
1	44700	38.608826960608	3
1	44761	38.609174960608	2
1	44823	38.609439812172	1
1	44897	38.611773346112	3
1	44958	38.612121346112	2
1	44993	38.612265596486	1
1	45477	38.858734053923	3
1	45519	38.859082053923	1
1	45579	38.859436440374	3
1	45594	38.859784440374	1
1	45632	38.860166478174	3
1	45659	38.860514478174	1
1	45687	38.860546185211	3
1	45702	38.860894185211	1
1	46323	39.10616671314	3
1	46354	39.10651471314	1
1	46378	39.106611242267	3
1	46397	39.106959242267	1
1	46567	39.110643506696	3
1	46609	39.110991506696	2
1	46644	39.111319697088	1
1	46661	39.111412717921	3
1	46676	39.111760717921	1
1	47074	39.357495718997	3
1	47143	39.357843718997	1
1	47214	39.359614078459	3
1	47256	39.359962078459	2
1	47290	39.360120960611	3
1	47347	39.360468960611	2
1	47383	39.360676167014	1
1	47792	39.60839079326	3
1	47854	39.60873879326	1
1	47984	39.610999949803	3
1	48015	39.611347949803	1
1	48039	39.611867001061	3
1	48058	39.612215001061	1
1	48096	39.612402185978	3
1	48130	39.612750185978	2
1	48166	39.612839780862	1
1	48195	39.615375504732	3
1	48218	39.615723504732	1
1	48536	39.856901271269	3
1	48571	39.857249271269	1
1	48593	39.857482282421	3
1	48643	39.857830282421	2
1	48667	39.858120421469	1
1	48798	39.859811549352	3
1	48817	39.860159549352	1
1	48874	39.860383523615	3
1	48920	39.860731523615	1
1	49003	39.863040495325	3
1	49026	39.863388495325	1
1	49649	40.108187356008	3
1	49707	40.108535356008	1
1	49788	40.109542339941	3
1	49823	40.109890339941	1
1	49846	40.109948867923	3
1	49884	40.110296867923	1
1	49953	40.112209947125	3
1	49968	40.112557947125	1
1	50008	40.112586536845	3
1	50046	40.112934536845	2
1	50077	40.113164879279	1
1	50469	40.323997144424	3
1	50496	40.324329144424	1
1	50574	40.325802893539	3
1	50636	40.326150893539	1
1	50886	40.355380217362	3
1	50940	40.355728217362	1
1	51013	40.357123567518	3
1	51067	40.357471567518	1
1	51090	40.357703778219	3
1	51109	40.358051778219	1
1	51148	40.358448822329	3
1	51221	40.358796822329	1
1	51281	40.359182773722	3
1	51296	40.359530773722	1
1	51336	40.360572544792	3
1	51355	40.360920544792	1
1	51523	40.427994655635	3
1	51586	40.428326655635	2
1	51591	40.428326661903	3
1	51631	40.428658661903	1
1	51974	40.606640677616	3
1	52028	40.606988677616	1
1	52074	40.608141083953	3
1	52093	40.608489083953	1
1	52133	40.609102770413	3
1	52156	40.609450770413	1
1	52290	40.611433021344	3
1	52309	40.611781021344	1
1	52344	40.611849164788	3
1	52359	40.612197164788	1
1	52846	40.814823848722	3
1	52878	40.815171848722	1
1	52906	40.815317351282	3
1	52926	40.815665351282	1
1	52965	40.816151780634	3
1	52984	40.816499780634	1
1	53021	40.816841678812	3
1	53048	40.817189678812	1
1	53350	40.819769571341	3
1	53385	40.820117571341	1
1	53507	40.822826381792	3
1	53538	40.823174381792	1
1	53824	40.857153118396	3
1	53882	40.857501118396	1
1	54009	40.860196715278	3
1	54036	40.860544715278	1
1	54065	40.860617594279	3
1	54088	40.860965594279	1
1	54126	40.861935987733	3
1	54160	40.862283987733	1
1	54220	40.864945460266	3
1	54240	40.865293460266	1
1	54967	41.111820314074	3
1	55002	41.112168314074	1
1	55081	41.112910014991	3
1	55127	41.113258014991	1
1	55183	41.113603910841	3
1	55198	41.113951910841	1
1	55244	41.117009797609	3
1	55283	41.117357797609	2
1	55313	41.117678298833	1
1	56448	41.362499594261	3
1	56494	41.362847594261	2
1	56531	41.362919392368	1
1	56547	41.364525787037	3
1	56566	41.364873787037	1
1	56619	41.365075824308	3
1	56669	41.365423824308	1
1	56697	41.365975386588	3
1	56712	41.366323386588	1
1	57164	41.607848770775	3
1	57195	41.608196770775	1
1	57331	41.610131435029	3
1	57366	41.610479435029	1
1	57384	41.610570114799	3
1	57399	41.610918114799	1
1	57439	41.611640837841	3
1	57477	41.611988837841	2
1	57496	41.612244311682	1
1	57532	41.612735459455	3
1	57551	41.613083459455	1
1	57992	41.859717411434	3
1	58042	41.860065411434	1
1	58066	41.861876371841	3
1	58085	41.862224371841	1
1	58177	41.86305193366	3
1	58211	41.86339993366	2
1	58246	41.863658907361	1
1	58274	41.864658307716	3
1	58313	41.865006307716	2
1	58356	41.865039719827	1
1	58794	42.108900124927	3
1	58852	42.109248124927	1
1	58948	42.110794396733	3
1	59002	42.111142396733	1
1	59028	42.111264298333	3
1	59043	42.111612298333	1
1	59145	42.112284376807	3
1	59164	42.112632376807	1
1	59199	42.113032604139	3
1	59237	42.113380604139	2
1	59270	42.11356059259	1
1	59685	42.360343025248	3
1	59731	42.360691025248	1
1	59790	42.361358296968	3
1	59824	42.361706296968	2
1	59876	42.361964048872	1
1	59895	42.362849953083	3
1	59914	42.363197953083	1
1	59949	42.363479123423	3
1	59988	42.363827123423	1
1	60047	42.365543514537	3
1	60066	42.365891514537	1
1	60421	42.606991927794	3
1	60448	42.607339927794	1
1	60558	42.608790393694	3
1	60635	42.609138393694	1
1	60680	42.609580708866	3
1	60695	42.609928708866	1
1	60741	42.611800493235	3
1	60764	42.612148493235	1
1	60798	42.612263118782	3
1	60817	42.612611118782	1
1	60857	42.613054772846	3
1	60876	42.613402772846	1
1	61321	42.864814556428	3
1	61345	42.865162556428	1
1	61381	42.866441288499	3
1	61427	42.866789288499	1
1	61459	42.866840111815	3
1	61497	42.867188111815	1
1	61529	42.867282325442	3
1	61567	42.867630325442	2
1	61610	42.867751152434	1
1	61626	42.868653861965	3
1	61646	42.869001861965	1
1	62210	43.109520821362	3
1	62233	43.109868821362	1
1	62267	43.11045548533	3
1	62282	43.11080348533	1
1	62326	43.111672353634	3
1	62361	43.112020353634	1
1	62438	43.112429328559	3
1	62477	43.112777328559	2
1	62510	43.112837189015	1
1	62531	43.113417515511	3
1	62550	43.113765515511	1
1	63019	43.362360581273	3
1	63042	43.362708581273	1
1	63081	43.363448149971	3
1	63120	43.363796149971	1
1	63140	43.363838577734	3
1	63169	43.364186577734	1
1	63203	43.364296656147	3
1	63226	43.364644656147	1
1	63319	43.366088522465	3
1	63338	43.366436522465	1
1	63364	43.366613297191	3
1	63379	43.366961297191	1
1	63751	43.608855560652	3
1	63790	43.609203560652	1
1	63809	43.609654730021	3
1	63870	43.610002730021	2
1	63932	43.610037851857	1
1	63952	43.611692508616	3
1	63975	43.612040508616	1
1	64071	43.612908198396	3
1	64105	43.613256198396	1
1	64173	43.613952955496	3
1	64192	43.614300955496	1
1	64508	43.855673090794	3
1	64550	43.856021090794	1
1	64723	43.857459867602	3
1	64800	43.857807867602	2
1	64823	43.857840746787	1
1	64867	43.85856309485	3
1	64917	43.85891109485	1
1	64941	43.860921172247	3
1	64960	43.861269172247	1
1	65435	44.105967106156	3
1	65493	44.106315106156	1
1	65531	44.106609519866	3
1	65573	44.106957519866	1
1	65643	44.107491421081	3
1	65685	44.107839421081	2
1	65714	44.107924754445	1
1	65743	44.108314173357	3
1	65767	44.108662173357	1
1	65805	44.108681309497	3
1	65824	44.109029309497	1
1	66285	44.361392685224	3
1	66343	44.361740685224	2
1	66368	44.361913522043	1
1	66445	44.362764404457	3
1	66472	44.363112404457	1
1	66505	44.364867515318	3
1	66539	44.365215515318	2
1	66584	44.365396784728	1
1	66603	44.36655116782	3
1	66622	44.36689916782	1
1	66876	44.611146528641	3
1	66934	44.611494528641	1
1	67139	44.613519721213	3
1	67185	44.613867721213	2
1	67213	44.613869429576	1
1	67237	44.61485372728	3
1	67257	44.61520172728	1
1	67289	44.615373610086	3
1	67331	44.615721610086	2
1	67368	44.616009108288	1
1	67640	44.858397419937	3
1	67702	44.858745419937	1
1	67893	44.861002797657	3
1	67932	44.861350797657	1
1	67949	44.861919380626	3
1	68002	44.862267380626	2
1	68063	44.862609529795	1
1	68085	44.864037512679	3
1	68104	44.864385512679	1
1	68523	45.107493123724	3
1	68577	45.107841123724	1
1	68744	45.110158000164	3
1	68802	45.110506000164	2
1	68817	45.110810122452	1
1	68843	45.111822744539	3
1	68858	45.112170744539	1
1	68904	45.112632693197	3
1	68931	45.112980693197	1
1	68961	45.114975185163	3
1	68981	45.115323185163	1
1	69399	45.360751496142	3
1	69434	45.361099496142	1
1	69516	45.362213835859	3
1	69550	45.362561835859	2
1	69596	45.362636459073	3
1	69646	45.362984459073	1
1	69678	45.364266611341	3
1	69724	45.364614611341	2
1	69750	45.364884737015	1
1	70087	45.603425329373	3
1	70126	45.603773329373	1
1	70153	45.603816013314	3
1	70230	45.604164013314	2
1	70270	45.604449368376	1
1	70296	45.604886696977	3
1	70325	45.605234696977	1
1	70355	45.605620909321	3
1	70378	45.605968909321	1
1	70410	45.606342175515	3
1	70437	45.606690175515	1
1	70862	45.859395196495	3
1	70903	45.859743196495	1
1	70943	45.860741189257	3
1	70993	45.861089189257	1
1	71033	45.8614042057	3
1	71064	45.8617522057	1
1	71090	45.861878034258	3
1	71132	45.862226034258	1
1	71191	45.86311473776	3
1	71249	45.86346273776	2
1	71269	45.863655909165	1
1	71742	46.108106217122	3
1	71777	46.108454217122	1
1	71807	46.108599044474	3
1	71876	46.108947044474	1
1	71947	46.110205262457	3
1	71989	46.110553262457	2
1	72024	46.110765168123	1
1	72048	46.111940306655	3
1	72087	46.112288306655	1
1	72108	46.112932747589	3
1	72135	46.113280747589	1
1	72519	46.368592752829	3
1	72558	46.368940752829	1
1	72643	46.37076354598	3
1	72693	46.37111154598	1
1	72737	46.371220252351	3
1	72779	46.371568252351	2
1	72815	46.371794138249	1
1	72833	46.372152611099	3
1	72856	46.372500611099	1
1	73256	46.608720003205	3
1	73295	46.609068003205	1
1	73318	46.60955554808	3
1	73387	46.60990354808	1
1	73456	46.610454710227	3
1	73487	46.610802710227	1
1	73514	46.611689961798	3
1	73541	46.612037961798	1
1	73574	46.613327361636	3
1	73601	46.613675361636	1
1	73951	46.858591318409	3
1	74001	46.858939318409	1
1	74113	46.859789904645	3
1	74140	46.860137904645	1
1	74168	46.860593551776	3
1	74218	46.860941551776	2
1	74270	46.861091361711	1
1	74321	46.862003708214	3
1	74349	46.862351708214	1
1	74922	47.119759544532	3
1	74962	47.120107544532	1
1	74983	47.121005103941	3
1	75014	47.121353103941	1
1	75045	47.122183985544	3
1	75114	47.122531985544	2
1	75152	47.122787348565	1
1	75180	47.124761714943	3
1	75207	47.125109714943	1
1	75574	47.362394966368	3
1	75628	47.362742966368	1
1	75649	47.362857522605	3
1	75681	47.363205522605	1
1	75712	47.363626549937	3
1	75743	47.363974549937	1
1	75793	47.364334205255	3
1	75859	47.364682205255	1
1	75936	47.367635739005	3
1	75967	47.367983739005	1
1	76426	47.618852504585	3
1	76461	47.619200504585	1
1	76489	47.619382480354	3
1	76528	47.619730480354	1
1	76551	47.620882998111	3
1	76601	47.621230998111	1
1	76648	47.623701042677	3
1	76679	47.624049042677	1
1	76703	47.624160023588	3
1	76734	47.624508023588	1
1	77128	47.864092010938	3
1	77182	47.864440010938	2
1	77210	47.864582102028	1
1	77281	47.865270261092	3
1	77312	47.865618261092	1
1	77336	47.865703992823	3
1	77371	47.866051992823	1
1	77397	47.866874848925	3
1	77429	47.867222848925	1
1	77996	48.113759389234	3
1	78063	48.114107389234	1
1	78084	48.114640454335	3
1	78115	48.114988454335	1
1	78144	48.115303230877	3
1	78183	48.115651230877	1
1	78206	48.116134216503	3
1	78260	48.116482216503	1
1	78303	48.118982400371	3
1	78334	48.119330400371	1
1	78631	48.359331196507	3
1	78681	48.359679196507	2
1	78708	48.35987314469	1
1	78728	48.360383632386	3
1	78801	48.360731632386	2
1	78879	48.361017336319	1
1	78991	48.363058776078	3
1	79057	48.363406776078	1
1	79549	48.616273603908	3
1	79580	48.616621603908	1
1	79704	48.618098057281	3
1	79735	48.618446057281	1
1	80357	48.864374588227	3
1	80388	48.864722588227	1
1	80416	48.865813118563	3
1	80451	48.866161118563	1
1	81127	49.122245382458	3
1	81181	49.122593382458	1
1	81205	49.12282485481	3
1	81240	49.12317285481	1
1	81818	49.36367136867	3
1	81872	49.36401936867	1
1	81914	49.364366240564	3
1	81949	49.364714240564	1
1	82484	49.615066486109	3
1	82584	49.615414486109	1
1	83399	49.869587091078	3
1	83435	49.869935091078	1
1	84111	50.11909169483	3
1	84146	50.11943969483	1
1	84828	50.37050885195	3
1	84901	50.37085685195	1
1	85560	50.627040048688	3
1	85595	50.627388048688	1
1	86103	50.870829416467	3
1	86157	50.871177416467	1
1	86912	51.120473125075	3
1	86943	51.120821125075	1
1	87707	51.370442298832	3
1	87784	51.370790298832	1
1	88424	51.617948079572	3
1	88455	51.618296079572	1
1	89247	51.871295282692	3
1	89278	51.871643282692	1
1	89900	52.12169449508	3
1	89931	52.12204249508	1
1	90757	52.379149214391	3
1	90784	52.379497214391	1
1	91425	52.622332987485	3
1	91483	52.622680987485	1
1	92142	52.874782232096	3
1	92165	52.875130232096	1
1	92918	53.129956121243	3
1	92941	53.130304121243	1
1	93584	53.381277963674	3
1	93607	53.381625963674	1
2	2	0.1	1
2	10360	28.10823507569	2
2	10398	28.10858307569	1
2	11034	28.361609670616	2
2	11068	28.361957670616	1
2	11685	28.608595156501	2
2	11700	28.608943156501	1
2	12211	28.856668636695	2
2	12226	28.857016636695	1
2	12966	29.11013377997	2
2	13004	29.11048177997	1
2	13645	29.361588859875	2
2	13660	29.361936859875	1
2	14068	29.60777777165	2
2	14110	29.60812577165	1
2	14623	29.850684311977	2
2	14638	29.851032311977	1
2	15460	30.104648317171	2
2	15525	30.104996317171	1
2	16002	30.357971876443	2
2	16036	30.358319876443	1
2	16675	30.6080890685	2
2	16709	30.6084370685	1
2	17212	30.852328336009	2
2	17265	30.852676336009	1
2	17958	31.102802301778	2
2	17996	31.103150301778	1
2	18646	31.35746424616	2
2	18688	31.35781224616	1
2	19252	31.602350797066	2
2	19267	31.602698797066	1
2	20019	31.85471159525	2
2	20034	31.85505959525	1
2	20898	32.109097701271	2
2	20951	32.109445701271	1
2	21512	32.355897220351	2
2	21527	32.356245220351	1
2	22217	32.607454684325	2
2	22278	32.607802684325	1
2	22818	32.854326921201	2
2	22887	32.854674921201	1
2	23411	33.002097985434	2
2	23445	33.002445985434	1
2	23746	33.103208451052	2
2	23761	33.103556451052	1
2	24647	33.330306899413	2
2	24683	33.330654899413	1
2	24714	33.33154703046	2
2	24729	33.33187903046	1
2	25535	33.43154703046	2
2	25550	33.43189503046	1
2	25585	33.435413660534	2
2	25600	33.435745660534	1
2	25744	33.602150453157	2
2	25759	33.602498453157	1
2	26627	33.806895531391	2
2	26642	33.807243531391	1
2	26803	33.809186672534	2
2	26818	33.809534672534	1
2	27272	33.860016889621	2
2	27318	33.860364889621	1
2	28317	34.106739049941	2
2	28332	34.107087049941	1
2	28543	34.132057689118	2
2	28558	34.132405689118	1
2	29609	34.354588536217	2
2	29643	34.354936536217	1
2	30355	34.44982795189	2
2	30370	34.45017595189	1
2	31049	34.605624049744	2
2	31064	34.605972049744	1
2	31490	34.613323267253	2
2	31505	34.613671267253	1
2	31728	34.617522834395	2
2	31802	34.617854834395	1
2	31867	34.717522834395	2
2	31882	34.717854834395	1
2	32080	34.720117010133	2
2	32095	34.720481010133	1
2	32555	34.856679422415	2
2	32570	34.857027422415	1
2	33274	35.103699588321	2
2	33347	35.104047588321	1
2	34696	35.358691998893	2
2	34711	35.359039998893	1
2	35329	35.608359702382	2
2	35344	35.608707702382	1
2	36230	35.859877183257	2
2	36276	35.860225183257	1
2	37369	36.111366600663	2
2	37384	36.111714600663	1
2	37993	36.359030371841	2
2	38027	36.359378371841	1
2	38747	36.606766712795	2
2	38762	36.607114712795	1
2	39102	36.852517628525	2
2	39136	36.852865628525	1
2	40425	37.111846311856	2
2	40440	37.112194311856	1
2	40913	37.356947710098	2
2	40947	37.357295710098	1
2	41701	37.607638622893	2
2	41716	37.607986622893	1
2	42512	37.859072881059	2
2	42546	37.859420881059	1
2	43514	38.110213057715	2
2	43529	38.110561057715	1
2	44258	38.36019812589	2
2	44308	38.36054612589	1
2	45015	38.613511407636	2
2	45030	38.613859407636	1
2	45778	38.862140796011	2
2	45793	38.862488796011	1
2	46430	39.109249137623	2
2	46464	39.109597137623	1
2	47437	39.362694094375	2
2	47452	39.363042094375	1
2	47921	39.610406330599	2
2	47936	39.610754330599	1
2	48688	39.858991651216	2
2	48722	39.859339651216	1
2	49724	40.108686532308	2
2	49739	40.109034532308	1
2	50992	40.356776967119	2
2	51026	40.357124967119	1
2	52234	40.609990638784	2
2	52249	40.610338638784	1
2	53256	40.819126049539	2
2	53310	40.819474049539	1
2	54144	40.861937442574	2
2	54194	40.862285442574	1
2	55023	41.112383196106	2
2	55038	41.112731196106	1
2	56599	41.36504891301	2
2	56633	41.36539691301	1
2	57240	41.609118583761	2
2	57290	41.609466583761	1
2	58118	41.862418656178	2
2	58133	41.862766656178	1
2	59085	42.111636357452	2
2	59100	42.111984357452	1
2	59967	42.363654926607	2
2	60005	42.364002926607	1
2	60602	42.609099392786	2
2	60652	42.609447392786	1
2	61396	42.86652370325	2
2	61473	42.86687170325	1
2	62378	43.112035215039	2
2	62393	43.112383215039	1
2	63258	43.364707589726	2
2	63273	43.365055589726	1
2	64011	43.612299474634	2
2	64027	43.612647474634	1
2	64847	43.858306384584	2
2	64881	43.858654384584	1
2	65853	44.109672023574	2
2	65868	44.110020023574	1
2	66383	44.362090896168	2
2	66398	44.362438896168	1
2	67077	44.612900293478	2
2	67092	44.613248293478	1
2	67724	44.858893593995	2
2	67758	44.859241593995	1
2	68679	45.109666623103	2
2	68694	45.110014623103	1
2	69456	45.361502156156	2
2	69472	45.361850156156	1
2	70464	45.608054710289	2
2	70479	45.608402710289	1
2	71106	45.861908117523	2
2	71156	45.862256117523	1
2	71840	46.108932316538	2
2	71921	46.109280316538	1
2	72657	46.370822698597	2
2	72711	46.371170698597	1
2	73351	46.609654904687	2
2	73432	46.610002904687	1
2	74055	46.859346166396	2
2	74070	46.859694166396	1
2	75059	47.122185585843	2
2	75128	47.122533585843	1
2	75877	47.365619028703	2
2	75892	47.365967028703	1
2	76565	47.621222037237	2
2	76619	47.621570037237	1
2	77452	47.868172932375	2
2	77467	47.868520932375	1
2	78219	48.116241911031	2
2	78273	48.116589911031	1
2	78910	48.361802511537	2
2	78926	48.362150511537	1
2	79759	48.62128440994	2
2	79774	48.62163240994	1
2	80468	48.866764102767	2
2	80483	48.867112102767	1
2	81313	49.124458581333	2
2	81328	49.124806581333	1
2	82023	49.367076005778	2
2	82038	49.367424005778	1
2	82674	49.616736149911	2
2	82708	49.617084149911	1
2	83453	49.873571340639	2
2	83468	49.873919340639	1
2	84218	50.120904137656	2
2	84252	50.121252137656	1
2	84952	50.375268270295	2
2	84967	50.375616270295	1
2	85612	50.627413813507	2
2	85646	50.627761813507	1
2	86270	50.872972392855	2
2	86339	50.873320392855	1
2	87043	51.122089253616	2
2	87097	51.122437253616	1
2	87877	51.374838265731	2
2	87892	51.375186265731	1
2	88569	51.619244847666	2
2	88584	51.619592847666	1
2	89299	51.876036284562	2
2	89315	51.876384284562	1
2	90120	52.124533392904	2
2	90136	52.124881392904	1
2	90808	52.380554488362	2
2	90823	52.380902488362	1
2	91502	52.623260479845	2
2	91517	52.623608479845	1
2	92189	52.876969819552	2
2	92204	52.877317819552	1
2	92965	53.130824515059	2
2	92980	53.131172515059	1
2	93627	53.384848065101	2
2	93642	53.385196065101	1
3	2	0.1	0
3	2	0.1	0
3	2	0.1	4
4	2	0.1	1
4	341	18.102744240989	3
4	355	18.103092240989	1
4	440	18.354221502168	3
4	454	18.354569502168	1
4	575	18.60423643208	3
4	589	18.60458443208	1
4	717	18.851922081361	3
4	733	18.852270081361	1
4	874	19.100283735739	3
4	886	19.100631735739	1
4	1028	19.352388494323	3
4	1040	19.352736494323	1
4	1181	19.602400050422	3
4	1193	19.602748050422	1
4	1339	19.854180555093	3
4	1351	19.854528555093	1
4	1524	20.002290616147	3
4	1536	20.002638616147	1
4	1569	20.104163256055	3
4	1581	20.104511256055	1
4	1786	20.329591836105	3
4	1798	20.329939836105	1
4	1925	20.34132090704	3
4	1937	20.34165290704	1
4	1974	20.346001215176	3
4	1998	20.350349215176	1
4	2031	20.352307550882	3
4	2043	20.352655550882	1
4	2242	20.603603311478	3
4	2254	20.603951311478	1
4	2427	20.854723488	3
4	2439	20.855071488	1
4	2630	21.004348275428	3
4	2652	21.008696275428	1
4	2709	21.101322912394	3
4	2721	21.101670912394	1
4	2896	21.35108287949	3
4	2908	21.35143087949	1
4	3086	21.603088297424	3
4	3098	21.603436297424	1
4	3275	21.851932560944	3
4	3287	21.852280560944	1
4	3476	22.004348226052	3
4	3498	22.008696226052	1
4	3557	22.10306542901	3
4	3569	22.10341342901	1
4	3742	22.350301236628	3
4	3754	22.350649236628	1
4	3942	22.600854654786	3
4	3956	22.601202654786	1
4	4156	22.851577247408	3
4	4170	22.851925247408	1
4	4387	23.00434820921	3
4	4413	23.00869620921	1
4	4476	23.102193111272	3
4	4490	23.102541111272	1
4	4689	23.353264054162	3
4	4703	23.353612054162	1
4	4905	23.603265641928	3
4	4919	23.603613641928	1
4	5114	23.852373586838	3
4	5128	23.852721586838	1
4	5380	24.004348195558	3
4	5406	24.008696195558	1
4	5471	24.103281744894	3
4	5485	24.103629744894	1
4	5717	24.351843721832	3
4	5731	24.352191721832	1
4	5972	24.604189821471	3
4	5986	24.604537821471	1
4	6220	24.852343354822	3
4	6234	24.852691354822	1
4	6304	24.857575427632	3
4	6326	24.857923427632	1
4	6496	25.004348204946	3
4	6523	25.008696204946	1
4	6533	25.008696459134	3
4	6562	25.013044459134	1
4	6587	25.100100042925	3
4	6601	25.100448042925	1
4	6669	25.102656845138	3
4	6691	25.103004845138	1
4	6843	25.351797330841	3
4	6857	25.352145330841	1
4	6927	25.354550034277	3
4	6949	25.354898034277	1
4	7105	25.604402492332	3
4	7125	25.604750492332	1
[...]
239	100695	8.1	0
239	100695	8.2	0
239	100695	8.3	0
239	100695	8.4	0
239	100695	8.5	0
239	100695	8.6	0
239	100695	8.7	0
239	100695	8.8	0
239	100695	8.9	0
239	100695	9	0
239	100695	9.1	0
239	100695	9.2	0
239	100695	9.3	0
239	100695	9.4	0
239	100695	9.5	0
239	100695	9.6	0
239	100695	9.7	0
239	100695	9.8	0
239	100695	9.9	0
239	100695	10	0
239	100695	10.1	0
239	100695	10.2	0
239	100695	10.3	0
239	100695	10.4	0
239	100695	10.5	0
239	100695	10.6	0
239	100695	10.7	0
239	100695	10.8	0
239	100695	10.9	0
239	100695	11	0
239	100695	11.1	0
239	100695	11.2	0
239	100695	11.3	0
239	100695	11.4	0
239	100695	11.5	0
239	100695	11.6	0
239	100695	11.7	0
239	100695	11.8	0
239	100695	11.9	0
239	100695	12	0
239	100695	12.1	0
239	100695	12.2	0
239	100695	12.3	0
239	100695	12.4	0
239	100695	12.5	0
239	100695	12.6	0
239	100695	12.7	0
239	100695	12.8	0
239	100695	12.9	0
239	100695	13	0
239	100695	13.1	0
239	100695	13.2	0
239	100695	13.3	0
239	100695	13.4	0
239	100695	13.5	0
239	100695	13.6	0
239	100695	13.7	0
239	100695	13.8	0
239	100695	13.9	0
239	100695	14	0
239	100695	14.1	0
239	100695	14.2	0
239	100695	14.3	0
239	100695	14.4	0
239	100695	14.5	0
239	100695	14.6	0
239	100695	14.7	0
239	100695	14.8	0
239	100695	14.9	0
239	100695	15	0
239	100695	15.1	0
239	100695	15.2	0
239	100695	15.3	0
239	100695	15.4	0
239	100695	15.5	0
239	100695	15.6	0
239	100695	15.7	0
239	100695	15.8	0
239	100695	15.9	0
239	100695	16	0
239	100695	16.1	0
239	100695	16.2	0
239	100695	16.3	0
239	100695	16.4	0
239	100695	16.5	0
239	100695	16.6	0
239	100695	16.7	0
239	100695	16.8	0
239	100695	16.9	0
239	100695	17	0
239	100695	17.1	0
239	100695	17.2	0
239	100695	17.3	0
239	100695	17.4	0
239	100695	17.5	0
239	100695	17.6	0
239	100695	17.7	0
239	100695	17.8	0
239	100695	17.9	0
239	100695	18	0
239	100695	18.1	0
239	100695	18.2	0
239	100695	18.3	0
239	100695	18.4	0
239	100695	18.5	0
239	100695	18.6	0
239	100695	18.7	0
239	100695	18.8	0
239	100695	18.9	0
239	100695	19	0
239	100695	19.1	0
239	100695	19.2	0
239	100695	19.3	0
239	100695	19.4	0
239	100695	19.5	0
239	100695	19.6	0
239	100695	19.7	0
239	100695	19.8	0
239	100695	19.9	0
239	100695	20	0
239	100695	20.1	0
239	100695	20.2	0
239	100695	20.3	0
239	100695	20.4	0
239	100695	20.5	0
239	100695	20.6	0
239	100695	20.7	0
239	100695	20.8	0
239	100695	20.9	0
239	100695	21	0
239	100695	21.1	0
239	100695	21.2	0
239	100695	21.3	0
239	100695	21.4	0
239	100695	21.5	0
239	100695	21.6	0
239	100695	21.7	0
239	100695	21.8	0
239	100695	21.9	0
239	100695	22	0
239	100695	22.1	0
239	100695	22.2	0
239	100695	22.3	0
239	100695	22.4	0
239	100695	22.5	0
239	100695	22.6	0
239	100695	22.7	0
239	100695	22.8	0
239	100695	22.9	0
239	100695	23	0
239	100695	23.1	0
239	100695	23.2	0
239	100695	23.3	0
239	100695	23.4	0
239	100695	23.5	0
239	100695	23.6	0
239	100695	23.7	0
239	100695	23.8	0
239	100695	23.9	0
239	100695	24	0
239	100695	24.1	0
239	100695	24.2	0
239	100695	24.3	0
239	100695	24.4	0
239	100695	24.5	0
239	100695	24.6	0
239	100695	24.7	0
239	100695	24.8	0
239	100695	24.9	0
239	100695	25	0
239	100695	25.1	0
239	100695	25.2	0
239	100695	25.3	0
239	100695	25.4	0
239	100695	25.5	0
239	100695	25.6	0
239	100695	25.7	0
239	100695	25.8	0
239	100695	25.9	0
239	100695	26	0
239	100695	26.1	0
239	100695	26.2	0
239	100695	26.3	0
239	100695	26.4	0
239	100695	26.5	0
239	100695	26.6	0
239	100695	26.7	0
239	100695	26.8	0
239	100695	26.9	0
239	100695	27	0
239	100695	27.1	0
239	100695	27.2	0
239	100695	27.3	0
239	100695	27.4	0
239	100695	27.5	0
239	100695	27.6	0
239	100695	27.7	0
239	100695	27.8	0
239	100695	27.9	0
239	100695	28	0
239	100695	28.1	0
239	100695	28.2	0
239	100695	28.3	0
239	100695	28.4	0
239	100695	28.5	0
239	100695	28.6	0
239	100695	28.7	0
239	100695	28.8	0
239	100695	28.9	0
239	100695	29	0
239	100695	29.1	0
239	100695	29.2	0
239	100695	29.3	0
239	100695	29.4	0
239	100695	29.5	0
239	100695	29.6	0
239	100695	29.7	0
239	100695	29.8	0
239	100695	29.9	0
239	100695	30	0
239	100695	30.1	0
239	100695	30.2	0
239	100695	30.3	0
239	100695	30.4	0
239	100695	30.5	0
239	100695	30.6	0
239	100695	30.7	0
239	100695	30.8	0
239	100695	30.9	0
239	100695	31	0
239	100695	31.1	0
239	100695	31.2	0
239	100695	31.3	0
239	100695	31.4	0
239	100695	31.5	0
239	100695	31.6	0
239	100695	31.7	0
239	100695	31.8	0
239	100695	31.9	0
239	100695	32	0
239	100695	32.1	0
239	100695	32.2	0
239	100695	32.3	0
239	100695	32.4	0
239	100695	32.5	0
239	100695	32.6	0
239	100695	32.7	0
239	100695	32.8	0
239	100695	32.9	0
239	100695	33	0
239	100695	33.1	0
239	100695	33.2	0
239	100695	33.3	0
239	100695	33.4	0
239	100695	33.5	0
239	100695	33.6	0
239	100695	33.7	0
239	100695	33.8	0
239	100695	33.9	0
239	100695	34	0
239	100695	34.1	0
239	100695	34.2	0
239	100695	34.3	0
239	100695	34.4	0
239	100695	34.5	0
239	100695	34.6	0
239	100695	34.7	0
239	100695	34.8	0
239	100695	34.9	0
239	100695	35	0
239	100695	35.1	0
239	100695	35.2	0
239	100695	35.3	0
239	100695	35.4	0
239	100695	35.5	0
239	100695	35.6	0
239	100695	35.7	0
239	100695	35.8	0
239	100695	35.9	0
239	100695	36	0
239	100695	36.1	0
239	100695	36.2	0
239	100695	36.3	0
239	100695	36.4	0
239	100695	36.5	0
239	100695	36.6	0
239	100695	36.7	0
239	100695	36.8	0
239	100695	36.9	0
239	100695	37	0
239	100695	37.1	0
239	100695	37.2	0
239	100695	37.3	0
239	100695	37.4	0
239	100695	37.5	0
239	100695	37.6	0
239	100695	37.7	0
239	100695	37.8	0
239	100695	37.9	0
239	100695	38	0
239	100695	38.1	0
239	100695	38.2	0
239	100695	38.3	0
239	100695	38.4	0
239	100695	38.5	0
239	100695	38.6	0
239	100695	38.7	0
239	100695	38.8	0
239	100695	38.9	0
239	100695	39	0
239	100695	39.1	0
239	100695	39.2	0
239	100695	39.3	0
239	100695	39.4	0
239	100695	39.5	0
239	100695	39.6	0
239	100695	39.7	0
239	100695	39.8	0
239	100695	39.9	0
239	100695	40	0
239	100695	40.1	0
239	100695	40.2	0
239	100695	40.3	0
239	100695	40.4	0
239	100695	40.5	0
239	100695	40.6	0
239	100695	40.7	0
239	100695	40.8	0
239	100695	40.9	0
239	100695	41	0
239	100695	41.1	0
239	100695	41.2	0
239	100695	41.3	0
239	100695	41.4	0
239	100695	41.5	0
239	100695	41.6	0
239	100695	41.7	0
239	100695	41.8	0
239	100695	41.9	0
239	100695	42	0
239	100695	42.1	0
239	100695	42.2	0
239	100695	42.3	0
239	100695	42.4	0
239	100695	42.5	0
239	100695	42.6	0
239	100695	42.7	0
239	100695	42.8	0
239	100695	42.9	0
239	100695	43	0
239	100695	43.1	0
239	100695	43.2	0
239	100695	43.3	0
239	100695	43.4	0
239	100695	43.5	0
239	100695	43.6	0
239	100695	43.7	0
239	100695	43.8	0
239	100695	43.9	0
239	100695	44	0
239	100695	44.1	0
239	100695	44.2	0
239	100695	44.3	0
239	100695	44.4	0
239	100695	44.5	0
239	100695	44.6	0
239	100695	44.7	0
239	100695	44.8	0
239	100695	44.9	0
239	100695	45	0
239	100695	45.1	0
239	100695	45.2	0
239	100695	45.3	0
239	100695	45.4	0
239	100695	45.5	0
239	100695	45.6	0
239	100695	45.7	0
239	100695	45.8	0
239	100695	45.9	0
239	100695	46	0
239	100695	46.1	0
239	100695	46.2	0
239	100695	46.3	0
239	100695	46.4	0
239	100695	46.5	0
239	100695	46.6	0
239	100695	46.7	0
239	100695	46.8	0
239	100695	46.9	0
239	100695	47	0
239	100695	47.1	0
239	100695	47.2	0
239	100695	47.3	0
239	100695	47.4	0
239	100695	47.5	0
239	100695	47.6	0
239	100695	47.7	0
239	100695	47.8	0
239	100695	47.9	0
239	100695	48	0
239	100695	48.1	0
239	100695	48.2	0
239	100695	48.3	0
239	100695	48.4	0
239	100695	48.5	0
239	100695	48.6	0
239	100695	48.7	0
239	100695	48.8	0
239	100695	48.9	0
239	100695	49	0
239	100695	49.1	0
239	100695	49.2	0
239	100695	49.3	0
239	100695	49.4	0
239	100695	49.5	0
239	100695	49.6	0
239	100695	49.7	0
239	100695	49.8	0
239	100695	49.9	0
239	100695	50	0
239	100695	50.1	0
239	100695	50.2	0
239	100695	50.3	0
239	100695	50.4	0
239	100695	50.5	0
239	100695	50.6	0
239	100695	50.7	0
239	100695	50.8	0
239	100695	50.9	0
239	100695	51	0
239	100695	51.1	0
239	100695	51.2	0
239	100695	51.3	0
239	100695	51.4	0
239	100695	51.5	0
239	100695	51.6	0
239	100695	51.7	0
239	100695	51.8	0
239	100695	51.9	0
239	100695	52	0
239	100695	52.1	0
239	100695	52.2	0
239	100695	52.3	0
239	100695	52.4	0
239	100695	52.5	0
239	100695	52.6	0
239	100695	52.7	0
239	100695	52.8	0
239	100695	52.9	0
239	100695	53	0
239	100695	53.1	0
239	100695	53.2	0
239	100695	53.3	0
239	100695	53.4	0
239	100695	53.5	0
239	100695	53.6	0
239	100695	53.7	0
239	100695	53.8	0
239	100695	53.9	0
239	100695	54	0
239	100695	54.1	0
239	100695	54.2	0
239	100695	54.3	0
239	100695	54.4	0
239	100695	54.5	0
239	100695	54.6	0
239	100695	54.7	0
239	100695	54.8	0
239	100695	54.9	0
239	100695	55	0
239	100695	55.1	0
239	100695	55.2	0
239	100695	55.3	0
239	100695	55.4	0
239	100695	55.5	0
239	100695	55.6	0
239	100695	55.7	0
239	100695	55.8	0
239	100695	55.9	0
239	100695	56	0
239	100695	56.1	0
239	100695	56.2	0
239	100695	56.3	0
239	100695	56.4	0
239	100695	56.5	0
239	100695	56.6	0
239	100695	56.7	0
239	100695	56.8	0
239	100695	56.9	0
239	100695	57	0
239	100695	57.1	0
239	100695	57.2	0
239	100695	57.3	0
239	100695	57.4	0
239	100695	57.5	0
239	100695	57.6	0
239	100695	57.7	0
239	100695	57.8	0
239	100695	57.9	0
239	100695	58	0
239	100695	58.1	0
239	100695	58.2	0
239	100695	58.3	0
239	100695	58.4	0
239	100695	58.5	0
239	100695	58.6	0
239	100695	58.7	0
239	100695	58.8	0
239	100695	58.9	0
239	100695	59	0
239	100695	59.1	0
239	100695	59.2	0
239	100695	59.3	0
239	100695	59.4	0
239	100695	59.5	0
239	100695	59.6	0
239	100695	59.7	0
239	100695	59.8	0
239	100695	59.9	0
239	100695	60	0
239	100695	60.1	0
239	100695	60.2	0
239	100695	60.3	0
239	100695	60.4	0
239	100695	60.5	0
240	100695	0.1	0
240	100695	0.2	0
240	100695	0.3	0
240	100695	0.4	0
240	100695	0.5	0
240	100695	0.6	0
240	100695	0.7	0
240	100695	0.8	0
240	100695	0.9	0
240	100695	1	0
240	100695	1.1	0
240	100695	1.2	0
240	100695	1.3	0
240	100695	1.4	0
240	100695	1.5	0
240	100695	1.6	0
240	100695	1.7	0
240	100695	1.8	0
240	100695	1.9	0
240	100695	2	0
240	100695	2.1	0
240	100695	2.2	0
240	100695	2.3	0
240	100695	2.4	0
240	100695	2.5	0
240	100695	2.6	0
240	100695	2.7	0
240	100695	2.8	0
240	100695	2.9	0
240	100695	3	0
240	100695	3.1	0
240	100695	3.2	0
240	100695	3.3	0
240	100695	3.4	0
240	100695	3.5	0
240	100695	3.6	0
240	100695	3.7	0
240	100695	3.8	0
240	100695	3.9	0
240	100695	4	0
240	100695	4.1	0
240	100695	4.2	0
240	100695	4.3	0
240	100695	4.4	0
240	100695	4.5	0
240	100695	4.6	0
240	100695	4.7	0
240	100695	4.8	0
240	100695	4.9	0
240	100695	5	0
240	100695	5.1	0
240	100695	5.2	0
240	100695	5.3	0
240	100695	5.4	0
240	100695	5.5	0
240	100695	5.6	0
240	100695	5.7	0
240	100695	5.8	0
240	100695	5.9	0
240	100695	6	0
240	100695	6.1	0
240	100695	6.2	0
240	100695	6.3	0
240	100695	6.4	0
240	100695	6.5	0
240	100695	6.6	0
240	100695	6.7	0
240	100695	6.8	0
240	100695	6.9	0
240	100695	7	0
240	100695	7.1	0
240	100695	7.2	0
240	100695	7.3	0
240	100695	7.4	0
240	100695	7.5	0
240	100695	7.6	0
240	100695	7.7	0
240	100695	7.8	0
240	100695	7.9	0
240	100695	8	0
240	100695	8.1	0
240	100695	8.2	0
240	100695	8.3	0
240	100695	8.4	0
240	100695	8.5	0
240	100695	8.6	0
240	100695	8.7	0
240	100695	8.8	0
240	100695	8.9	0
240	100695	9	0
240	100695	9.1	0
240	100695	9.2	0
240	100695	9.3	0
240	100695	9.4	0
240	100695	9.5	0
240	100695	9.6	0
240	100695	9.7	0
240	100695	9.8	0
240	100695	9.9	0
240	100695	10	0
240	100695	10.1	0
240	100695	10.2	0
240	100695	10.3	0
240	100695	10.4	0
240	100695	10.5	0
240	100695	10.6	0
240	100695	10.7	0
240	100695	10.8	0
240	100695	10.9	0
240	100695	11	0
240	100695	11.1	0
240	100695	11.2	0
240	100695	11.3	0
240	100695	11.4	0
240	100695	11.5	0
240	100695	11.6	0
240	100695	11.7	0
240	100695	11.8	0
240	100695	11.9	0
240	100695	12	0
240	100695	12.1	0
240	100695	12.2	0
240	100695	12.3	0
240	100695	12.4	0
240	100695	12.5	0
240	100695	12.6	0
240	100695	12.7	0
240	100695	12.8	0
240	100695	12.9	0
240	100695	13	0
240	100695	13.1	0
240	100695	13.2	0
240	100695	13.3	0
240	100695	13.4	0
240	100695	13.5	0
240	100695	13.6	0
240	100695	13.7	0
240	100695	13.8	0
240	100695	13.9	0
240	100695	14	0
240	100695	14.1	0
240	100695	14.2	0
240	100695	14.3	0
240	100695	14.4	0
240	100695	14.5	0
240	100695	14.6	0
240	100695	14.7	0
240	100695	14.8	0
240	100695	14.9	0
240	100695	15	0
240	100695	15.1	0
240	100695	15.2	0
240	100695	15.3	0
240	100695	15.4	0
240	100695	15.5	0
240	100695	15.6	0
240	100695	15.7	0
240	100695	15.8	0
240	100695	15.9	0
240	100695	16	0
240	100695	16.1	0
240	100695	16.2	0
240	100695	16.3	0
240	100695	16.4	0
240	100695	16.5	0
240	100695	16.6	0
240	100695	16.7	0
240	100695	16.8	0
240	100695	16.9	0
240	100695	17	0
240	100695	17.1	0
240	100695	17.2	0
240	100695	17.3	0
240	100695	17.4	0
240	100695	17.5	0
240	100695	17.6	0
240	100695	17.7	0
240	100695	17.8	0
240	100695	17.9	0
240	100695	18	0
240	100695	18.1	0
240	100695	18.2	0
240	100695	18.3	0
240	100695	18.4	0
240	100695	18.5	0
240	100695	18.6	0
240	100695	18.7	0
240	100695	18.8	0
240	100695	18.9	0
240	100695	19	0
240	100695	19.1	0
240	100695	19.2	0
240	100695	19.3	0
240	100695	19.4	0
240	100695	19.5	0
240	100695	19.6	0
240	100695	19.7	0
240	100695	19.8	0
240	100695	19.9	0
240	100695	20	0
240	100695	20.1	0
240	100695	20.2	0
240	100695	20.3	0
240	100695	20.4	0
240	100695	20.5	0
240	100695	20.6	0
240	100695	20.7	0
240	100695	20.8	0
240	100695	20.9	0
240	100695	21	0
240	100695	21.1	0
240	100695	21.2	0
240	100695	21.3	0
240	100695	21.4	0
240	100695	21.5	0
240	100695	21.6	0
240	100695	21.7	0
240	100695	21.8	0
240	100695	21.9	0
240	100695	22	0
240	100695	22.1	0
240	100695	22.2	0
240	100695	22.3	0
240	100695	22.4	0
240	100695	22.5	0
240	100695	22.6	0
240	100695	22.7	0
240	100695	22.8	0
240	100695	22.9	0
240	100695	23	0
240	100695	23.1	0
240	100695	23.2	0
240	100695	23.3	0
240	100695	23.4	0
240	100695	23.5	0
240	100695	23.6	0
240	100695	23.7	0
240	100695	23.8	0
240	100695	23.9	0
240	100695	24	0
240	100695	24.1	0
240	100695	24.2	0
240	100695	24.3	0
240	100695	24.4	0
240	100695	24.5	0
240	100695	24.6	0
240	100695	24.7	0
240	100695	24.8	0
240	100695	24.9	0
240	100695	25	0
240	100695	25.1	0
240	100695	25.2	0
240	100695	25.3	0
240	100695	25.4	0
240	100695	25.5	0
240	100695	25.6	0
240	100695	25.7	0
240	100695	25.8	0
240	100695	25.9	0
240	100695	26	0
240	100695	26.1	0
240	100695	26.2	0
240	100695	26.3	0
240	100695	26.4	0
240	100695	26.5	0
240	100695	26.6	0
240	100695	26.7	0
240	100695	26.8	0
240	100695	26.9	0
240	100695	27	0
240	100695	27.1	0
240	100695	27.2	0
240	100695	27.3	0
240	100695	27.4	0
240	100695	27.5	0
240	100695	27.6	0
240	100695	27.7	0
240	100695	27.8	0
240	100695	27.9	0
240	100695	28	0
240	100695	28.1	0
240	100695	28.2	0
240	100695	28.3	0
240	100695	28.4	0
240	100695	28.5	0
240	100695	28.6	0
240	100695	28.7	0
240	100695	28.8	0
240	100695	28.9	0
240	100695	29	0
240	100695	29.1	0
240	100695	29.2	0
240	100695	29.3	0
240	100695	29.4	0
240	100695	29.5	0
240	100695	29.6	0
240	100695	29.7	0
240	100695	29.8	0
240	100695	29.9	0
240	100695	30	0
240	100695	30.1	0
240	100695	30.2	0
240	100695	30.3	0
240	100695	30.4	0
240	100695	30.5	0
240	100695	30.6	0
240	100695	30.7	0
240	100695	30.8	0
240	100695	30.9	0
240	100695	31	0
240	100695	31.1	0
240	100695	31.2	0
240	100695	31.3	0
240	100695	31.4	0
240	100695	31.5	0
240	100695	31.6	0
240	100695	31.7	0
240	100695	31.8	0
240	100695	31.9	0
240	100695	32	0
240	100695	32.1	0
240	100695	32.2	0
240	100695	32.3	0
240	100695	32.4	0
240	100695	32.5	0
240	100695	32.6	0
240	100695	32.7	0
240	100695	32.8	0
240	100695	32.9	0
240	100695	33	0
240	100695	33.1	0
240	100695	33.2	0
240	100695	33.3	0
240	100695	33.4	0
240	100695	33.5	0
240	100695	33.6	0
240	100695	33.7	0
240	100695	33.8	0
240	100695	33.9	0
240	100695	34	0
240	100695	34.1	0
240	100695	34.2	0
240	100695	34.3	0
240	100695	34.4	0
240	100695	34.5	0
240	100695	34.6	0
240	100695	34.7	0
240	100695	34.8	0
240	100695	34.9	0
240	100695	35	0
240	100695	35.1	0
240	100695	35.2	0
240	100695	35.3	0
240	100695	35.4	0
240	100695	35.5	0
240	100695	35.6	0
240	100695	35.7	0
240	100695	35.8	0
240	100695	35.9	0
240	100695	36	0
240	100695	36.1	0
240	100695	36.2	0
240	100695	36.3	0
240	100695	36.4	0
240	100695	36.5	0
240	100695	36.6	0
240	100695	36.7	0
240	100695	36.8	0
240	100695	36.9	0
240	100695	37	0
240	100695	37.1	0
240	100695	37.2	0
240	100695	37.3	0
240	100695	37.4	0
240	100695	37.5	0
240	100695	37.6	0
240	100695	37.7	0
240	100695	37.8	0
240	100695	37.9	0
240	100695	38	0
240	100695	38.1	0
240	100695	38.2	0
240	100695	38.3	0
240	100695	38.4	0
240	100695	38.5	0
240	100695	38.6	0
240	100695	38.7	0
240	100695	38.8	0
240	100695	38.9	0
240	100695	39	0
240	100695	39.1	0
240	100695	39.2	0
240	100695	39.3	0
240	100695	39.4	0
240	100695	39.5	0
240	100695	39.6	0
240	100695	39.7	0
240	100695	39.8	0
240	100695	39.9	0
240	100695	40	0
240	100695	40.1	0
240	100695	40.2	0
240	100695	40.3	0
240	100695	40.4	0
240	100695	40.5	0
240	100695	40.6	0
240	100695	40.7	0
240	100695	40.8	0
240	100695	40.9	0
240	100695	41	0
240	100695	41.1	0
240	100695	41.2	0
240	100695	41.3	0
240	100695	41.4	0
240	100695	41.5	0
240	100695	41.6	0
240	100695	41.7	0
240	100695	41.8	0
240	100695	41.9	0
240	100695	42	0
240	100695	42.1	0
240	100695	42.2	0
240	100695	42.3	0
240	100695	42.4	0
240	100695	42.5	0
240	100695	42.6	0
240	100695	42.7	0
240	100695	42.8	0
240	100695	42.9	0
240	100695	43	0
240	100695	43.1	0
240	100695	43.2	0
240	100695	43.3	0
240	100695	43.4	0
240	100695	43.5	0
240	100695	43.6	0
240	100695	43.7	0
240	100695	43.8	0
240	100695	43.9	0
240	100695	44	0
240	100695	44.1	0
240	100695	44.2	0
240	100695	44.3	0
240	100695	44.4	0
240	100695	44.5	0
240	100695	44.6	0
240	100695	44.7	0
240	100695	44.8	0
240	100695	44.9	0
240	100695	45	0
240	100695	45.1	0
240	100695	45.2	0
240	100695	45.3	0
240	100695	45.4	0
240	100695	45.5	0
240	100695	45.6	0
240	100695	45.7	0
240	100695	45.8	0
240	100695	45.9	0
240	100695	46	0
240	100695	46.1	0
240	100695	46.2	0
240	100695	46.3	0
240	100695	46.4	0
240	100695	46.5	0
240	100695	46.6	0
240	100695	46.7	0
240	100695	46.8	0
240	100695	46.9	0
240	100695	47	0
240	100695	47.1	0
240	100695	47.2	0
240	100695	47.3	0
240	100695	47.4	0
240	100695	47.5	0
240	100695	47.6	0
240	100695	47.7	0
240	100695	47.8	0
240	100695	47.9	0
240	100695	48	0
240	100695	48.1	0
240	100695	48.2	0
240	100695	48.3	0
240	100695	48.4	0
240	100695	48.5	0
240	100695	48.6	0
240	100695	48.7	0
240	100695	48.8	0
240	100695	48.9	0
240	100695	49	0
240	100695	49.1	0
240	100695	49.2	0
240	100695	49.3	0
240	100695	49.4	0
240	100695	49.5	0
240	100695	49.6	0
240	100695	49.7	0
240	100695	49.8	0
240	100695	49.9	0
240	100695	50	0
240	100695	50.1	0
240	100695	50.2	0
240	100695	50.3	0
240	100695	50.4	0
240	100695	50.5	0
240	100695	50.6	0
240	100695	50.7	0
240	100695	50.8	0
240	100695	50.9	0
240	100695	51	0
240	100695	51.1	0
240	100695	51.2	0
240	100695	51.3	0
240	100695	51.4	0
240	100695	51.5	0
240	100695	51.6	0
240	100695	51.7	0
240	100695	51.8	0
240	100695	51.9	0
240	100695	52	0
240	100695	52.1	0
240	100695	52.2	0
240	100695	52.3	0
240	100695	52.4	0
240	100695	52.5	0
240	100695	52.6	0
240	100695	52.7	0
240	100695	52.8	0
240	100695	52.9	0
240	100695	53	0
240	100695	53.1	0
240	100695	53.2	0
240	100695	53.3	0
240	100695	53.4	0
240	100695	53.5	0
240	100695	53.6	0
240	100695	53.7	0
240	100695	53.8	0
240	100695	53.9	0
240	100695	54	0
240	100695	54.1	0
240	100695	54.2	0
240	100695	54.3	0
240	100695	54.4	0
240	100695	54.5	0
240	100695	54.6	0
240	100695	54.7	0
240	100695	54.8	0
240	100695	54.9	0
240	100695	55	0
240	100695	55.1	0
240	100695	55.2	0
240	100695	55.3	0
240	100695	55.4	0
240	100695	55.5	0
240	100695	55.6	0
240	100695	55.7	0
240	100695	55.8	0
240	100695	55.9	0
240	100695	56	0
240	100695	56.1	0
240	100695	56.2	0
240	100695	56.3	0
240	100695	56.4	0
240	100695	56.5	0
240	100695	56.6	0
240	100695	56.7	0
240	100695	56.8	0
240	100695	56.9	0
240	100695	57	0
240	100695	57.1	0
240	100695	57.2	0
240	100695	57.3	0
240	100695	57.4	0
240	100695	57.5	0
240	100695	57.6	0
240	100695	57.7	0
240	100695	57.8	0
240	100695	57.9	0
240	100695	58	0
240	100695	58.1	0
240	100695	58.2	0
240	100695	58.3	0
240	100695	58.4	0
240	100695	58.5	0
240	100695	58.6	0
240	100695	58.7	0
240	100695	58.8	0
240	100695	58.9	0
240	100695	59	0
240	100695	59.1	0
240	100695	59.2	0
240	100695	59.3	0
240	100695	59.4	0
240	100695	59.5	0
240	100695	59.6	0
240	100695	59.7	0
240	100695	59.8	0
240	100695	59.9	0
240	100695	60	0
240	100695	60.1	0
240	100695	60.2	0
240	100695	60.3	0
240	100695	60.4	0
240	100695	60.5	0

