file 4252790 1684418841                                         
version 2
run AodvRreqFloodingAttackScenario-0-20230518-16:07:07-7274
attr configname AodvRreqFloodingAttackScenario
attr datetime 20230518-16:07:07
attr experiment AodvRreqFloodingAttackScenario
attr inifile omnetpp.ini
attr iterationvars ""
attr iterationvarsf ""
attr measurement ""
attr network Scenario
attr processid 7274
attr repetition 0
attr replication #0
attr resultdir results
attr runnumber 0
attr seedset 0
param *.manager.moduleType "\"normal_car=networkprojectvanet.veins_inet.AodvCar *=networkprojectvanet.flooding.flooding_attack.AttackerAodvCar\""
param *.manager.moduleDisplayString "\"normal_car='i=veins/node/car;is=vs' *='i=veins/node/car,red;is=vs'\""
param *.manager.moduleName "\"normal_car=normal_car *=attacker_car\""
param *.attacker_car[*].numApps 1
param *.attacker_car[*].app[0].typename "\"UdpSink\""
param *.attacker_car[*].app[0].localPort 5000
param *.attacker_car[*].routing.deletePeriod 5s
param *.attacker_car[*].routing.floodingTimer 100ms
param *.attacker_car[*].routing.floodingStart 18.1s
param *.*_car[*].ipv4.arp.typename "\"GlobalArp\""
param *.normal_car[1].numApps 1
param *.normal_car[1].app[0].typename "\"UdpBasicApp\""
param *.normal_car[1].app[0].destAddresses "\"normal_car[6]\""
param *.normal_car[1].app[0].localPort 5000
param *.normal_car[1].app[0].destPort 5000
param *.normal_car[1].app[0].messageLength 1024B
param *.normal_car[1].app[0].sendInterval 1s
param *.normal_car[1].app[0].startTime 20s
param *.normal_car[1].app[0].packetName "\"UDPData\""
param *.normal_car[*].numApps 1
param *.normal_car[*].app[0].typename "\"UdpSink\""
param *.normal_car[*].app[0].localPort 5000
param *.normal_car[*].routing.deletePeriod 5s
param *.*_car[*].wlan[*].typename "\"AckingWirelessInterface\""
param *.*_car[*].wlan[*].bitrate 2Mbps
param *.*_car[*].wlan[*].mac.headerLength 23B
param *.*_car[*].wlan[*].radio.typename "\"UnitDiskRadio\""
param *.*_car[*].wlan[*].radio.transmitter.headerLength 96b
param *.*_car[*].wlan[*].radio.transmitter.communicationRange 70m
param *.*_car[*].wlan[*].radio.transmitter.interferenceRange 0m
param *.*_car[*].wlan[*].radio.transmitter.detectionRange 0m
param *.*_car[*].wlan[*].radio.receiver.ignoreInterference true
param *.*_car[*].ipv4.configurator.typename "\"HostAutoConfigurator\""
param *.*_car[*].ipv4.configurator.interfaces "\"wlan0\""
param *.*_car[*].ipv4.configurator.mcastGroups "\"224.0.0.1\""
param *.*_car[*].mobility.typename "\"VeinsInetMobility\""
param *.manager.updateInterval 0.1s
param *.manager.launchConfig "xmldoc(\"arcavacatamap.launchd.xml\")"
param *.manager.moduleType "\"normal_car=networkprojectvanet.veins_inet.AodvCar *=networkprojectvanet.veins_inet.AodvCar\""
param *.manager.moduleDisplayString "\"normal_car='i=veins/node/car;is=vs' *='i=veins/node/car;is=vs'\""
param *.manager.moduleName "\"normal_car=normal_car *=normal_car\""
param *.*_car[*].wlan[0].radio.displayCommunicationRange true
param *.visualizer.networkRouteVisualizer.displayRoutes true

vector 0 Scenario.normal_car[0].wlan[0].radio radioMode:vector ETV
attr interpolationmode sample-hold
attr source radioModeChanged
attr title "Radio mode, vector"
vector 1 Scenario.normal_car[0].wlan[0].radio receptionState:vector ETV
attr interpolationmode sample-hold
attr source receptionStateChanged
attr title "Radio reception state, vector"
vector 2 Scenario.normal_car[0].wlan[0].radio transmissionState:vector ETV
attr interpolationmode sample-hold
attr source transmissionStateChanged
attr title "Radio transmission state, vector"
vector 3 Scenario.normal_car[1].wlan[0].radio radioMode:vector ETV
attr interpolationmode sample-hold
attr source radioModeChanged
attr title "Radio mode, vector"
vector 4 Scenario.normal_car[1].wlan[0].radio receptionState:vector ETV
attr interpolationmode sample-hold
attr source receptionStateChanged
attr title "Radio reception state, vector"
vector 5 Scenario.normal_car[1].wlan[0].radio transmissionState:vector ETV
attr interpolationmode sample-hold
attr source transmissionStateChanged
attr title "Radio transmission state, vector"
vector 6 Scenario.attacker_car[2].wlan[0].radio radioMode:vector ETV
attr interpolationmode sample-hold
attr source radioModeChanged
attr title "Radio mode, vector"
vector 7 Scenario.attacker_car[2].wlan[0].radio receptionState:vector ETV
attr interpolationmode sample-hold
attr source receptionStateChanged
attr title "Radio reception state, vector"
vector 8 Scenario.attacker_car[2].wlan[0].radio transmissionState:vector ETV
attr interpolationmode sample-hold
attr source transmissionStateChanged
attr title "Radio transmission state, vector"
vector 9 Scenario.normal_car[3].wlan[0].radio radioMode:vector ETV
attr interpolationmode sample-hold
attr source radioModeChanged
attr title "Radio mode, vector"
vector 10 Scenario.normal_car[3].wlan[0].radio receptionState:vector ETV
attr interpolationmode sample-hold
attr source receptionStateChanged
attr title "Radio reception state, vector"
vector 11 Scenario.normal_car[3].wlan[0].radio transmissionState:vector ETV
attr interpolationmode sample-hold
attr source transmissionStateChanged
attr title "Radio transmission state, vector"
vector 12 Scenario.normal_car[4].wlan[0].radio radioMode:vector ETV
attr interpolationmode sample-hold
attr source radioModeChanged
attr title "Radio mode, vector"
vector 13 Scenario.normal_car[4].wlan[0].radio receptionState:vector ETV
attr interpolationmode sample-hold
attr source receptionStateChanged
attr title "Radio reception state, vector"
vector 14 Scenario.normal_car[4].wlan[0].radio transmissionState:vector ETV
attr interpolationmode sample-hold
attr source transmissionStateChanged
attr title "Radio transmission state, vector"
vector 15 Scenario.normal_car[5].wlan[0].radio radioMode:vector ETV
attr interpolationmode sample-hold
attr source radioModeChanged
attr title "Radio mode, vector"
vector 16 Scenario.normal_car[5].wlan[0].radio receptionState:vector ETV
attr interpolationmode sample-hold
attr source receptionStateChanged
attr title "Radio reception state, vector"
vector 17 Scenario.normal_car[5].wlan[0].radio transmissionState:vector ETV
attr interpolationmode sample-hold
attr source transmissionStateChanged
attr title "Radio transmission state, vector"
vector 18 Scenario.normal_car[6].wlan[0].radio radioMode:vector ETV
attr interpolationmode sample-hold
attr source radioModeChanged
attr title "Radio mode, vector"
vector 19 Scenario.normal_car[6].wlan[0].radio receptionState:vector ETV
attr interpolationmode sample-hold
attr source receptionStateChanged
attr title "Radio reception state, vector"
vector 20 Scenario.normal_car[6].wlan[0].radio transmissionState:vector ETV
attr interpolationmode sample-hold
attr source transmissionStateChanged
attr title "Radio transmission state, vector"
vector 21 Scenario.normal_car[7].wlan[0].radio radioMode:vector ETV
attr interpolationmode sample-hold
attr source radioModeChanged
attr title "Radio mode, vector"
vector 22 Scenario.normal_car[7].wlan[0].radio receptionState:vector ETV
attr interpolationmode sample-hold
attr source receptionStateChanged
attr title "Radio reception state, vector"
vector 23 Scenario.normal_car[7].wlan[0].radio transmissionState:vector ETV
attr interpolationmode sample-hold
attr source transmissionStateChanged
attr title "Radio transmission state, vector"
vector 24 Scenario.normal_car[8].wlan[0].radio radioMode:vector ETV
attr interpolationmode sample-hold
attr source radioModeChanged
attr title "Radio mode, vector"
vector 25 Scenario.normal_car[8].wlan[0].radio receptionState:vector ETV
attr interpolationmode sample-hold
attr source receptionStateChanged
attr title "Radio reception state, vector"
vector 26 Scenario.normal_car[8].wlan[0].radio transmissionState:vector ETV
attr interpolationmode sample-hold
attr source transmissionStateChanged
attr title "Radio transmission state, vector"
vector 27 Scenario.normal_car[9].wlan[0].radio radioMode:vector ETV
attr interpolationmode sample-hold
attr source radioModeChanged
attr title "Radio mode, vector"
vector 28 Scenario.normal_car[9].wlan[0].radio receptionState:vector ETV
attr interpolationmode sample-hold
attr source receptionStateChanged
attr title "Radio reception state, vector"
vector 29 Scenario.normal_car[9].wlan[0].radio transmissionState:vector ETV
attr interpolationmode sample-hold
attr source transmissionStateChanged
attr title "Radio transmission state, vector"
vector 30 Scenario.attacker_car[2].udp packetSent:vector(packetBytes) ETV
attr interpolationmode none
attr source packetSent
attr title "packets sent, vector(packetBytes)"
vector 31 Scenario.attacker_car[2].wlan[0].mac rcvdPkFromHl:vector(packetBytes) ETV
attr interpolationmode none
attr source packetReceivedFromUpper
attr title "packets received from higher layer, vector(packetBytes)"
vector 32 Scenario.attacker_car[2].wlan[0].mac.queue packetPushed:vector(packetBytes) ETV
attr interpolationmode none
attr title "packet pushed, vector(packetBytes)"
vector 33 Scenario.attacker_car[2].wlan[0].mac.queue queueLength:vector ETV
attr interpolationmode sample-hold
attr source "count(packetPushed) - count(packetPopped) - count(packetRemoved) - count(packetDropped)"
attr title "queue length, vector"
vector 34 Scenario.attacker_car[2].wlan[0].mac.queue packetPopped:vector(packetBytes) ETV
attr interpolationmode none
attr title "packet popped, vector(packetBytes)"
vector 35 Scenario.attacker_car[2].wlan[0].mac.queue queueingTime:vector ETV
attr interpolationmode none
attr source queueingTime(packetPopped)
attr title "queueing times, vector"
attr unit s
vector 36 Scenario.attacker_car[2].wlan[0].mac sentDownPk:vector(packetBytes) ETV
attr interpolationmode none
attr source packetSentToLower
attr title "packets sent to lower layer, vector(packetBytes)"
vector 37 Scenario.normal_car[4].wlan[0].mac rcvdPkFromLl:vector(packetBytes) ETV
attr interpolationmode none
attr source packetReceivedFromLower
attr title "packets received from lower layer, vector(packetBytes)"
vector 38 Scenario.normal_car[4].wlan[0].mac passedUpPk:vector(packetBytes) ETV
attr interpolationmode none
attr source packetSentToUpper
attr title "packets passed to higher layer, vector(packetBytes)"
vector 39 Scenario.normal_car[4].udp packetReceived:vector(packetBytes) ETV
attr interpolationmode none
attr source packetReceived
attr title "packets received, vector(packetBytes)"
vector 40 Scenario.normal_car[4].udp passedUpPk:vector(count) ETV
attr interpolationmode none
attr source packetSentToUpper
attr title "packets passed up, vector(count)"
vector 41 Scenario.normal_car[1].wlan[0].mac rcvdPkFromLl:vector(packetBytes) ETV
attr interpolationmode none
attr source packetReceivedFromLower
attr title "packets received from lower layer, vector(packetBytes)"
vector 42 Scenario.normal_car[1].wlan[0].mac passedUpPk:vector(packetBytes) ETV
attr interpolationmode none
attr source packetSentToUpper
attr title "packets passed to higher layer, vector(packetBytes)"
vector 43 Scenario.normal_car[1].udp packetReceived:vector(packetBytes) ETV
attr interpolationmode none
attr source packetReceived
attr title "packets received, vector(packetBytes)"
vector 44 Scenario.normal_car[1].udp passedUpPk:vector(count) ETV
attr interpolationmode none
attr source packetSentToUpper
attr title "packets passed up, vector(count)"
vector 45 Scenario.normal_car[4].udp packetSent:vector(packetBytes) ETV
attr interpolationmode none
attr source packetSent
attr title "packets sent, vector(packetBytes)"
vector 46 Scenario.normal_car[4].wlan[0].mac rcvdPkFromHl:vector(packetBytes) ETV
attr interpolationmode none
attr source packetReceivedFromUpper
attr title "packets received from higher layer, vector(packetBytes)"
vector 47 Scenario.normal_car[4].wlan[0].mac.queue packetPushed:vector(packetBytes) ETV
attr interpolationmode none
attr title "packet pushed, vector(packetBytes)"
vector 48 Scenario.normal_car[4].wlan[0].mac.queue queueLength:vector ETV
attr interpolationmode sample-hold
attr source "count(packetPushed) - count(packetPopped) - count(packetRemoved) - count(packetDropped)"
attr title "queue length, vector"
vector 49 Scenario.normal_car[4].wlan[0].mac.queue packetPopped:vector(packetBytes) ETV
attr interpolationmode none
attr title "packet popped, vector(packetBytes)"
vector 50 Scenario.normal_car[4].wlan[0].mac.queue queueingTime:vector ETV
attr interpolationmode none
attr source queueingTime(packetPopped)
attr title "queueing times, vector"
attr unit s
vector 51 Scenario.normal_car[4].wlan[0].mac sentDownPk:vector(packetBytes) ETV
attr interpolationmode none
attr source packetSentToLower
attr title "packets sent to lower layer, vector(packetBytes)"
vector 52 Scenario.normal_car[6].wlan[0].mac rcvdPkFromLl:vector(packetBytes) ETV
attr interpolationmode none
attr source packetReceivedFromLower
attr title "packets received from lower layer, vector(packetBytes)"
vector 53 Scenario.normal_car[6].wlan[0].mac passedUpPk:vector(packetBytes) ETV
attr interpolationmode none
attr source packetSentToUpper
attr title "packets passed to higher layer, vector(packetBytes)"
vector 54 Scenario.normal_car[6].udp packetReceived:vector(packetBytes) ETV
attr interpolationmode none
attr source packetReceived
attr title "packets received, vector(packetBytes)"
vector 55 Scenario.normal_car[6].udp passedUpPk:vector(count) ETV
attr interpolationmode none
attr source packetSentToUpper
attr title "packets passed up, vector(count)"
vector 56 Scenario.attacker_car[2].wlan[0].mac rcvdPkFromLl:vector(packetBytes) ETV
attr interpolationmode none
attr source packetReceivedFromLower
attr title "packets received from lower layer, vector(packetBytes)"
vector 57 Scenario.attacker_car[2].wlan[0].mac passedUpPk:vector(packetBytes) ETV
attr interpolationmode none
attr source packetSentToUpper
attr title "packets passed to higher layer, vector(packetBytes)"
vector 58 Scenario.attacker_car[2].udp packetReceived:vector(packetBytes) ETV
attr interpolationmode none
attr source packetReceived
attr title "packets received, vector(packetBytes)"
vector 59 Scenario.attacker_car[2].udp passedUpPk:vector(count) ETV
attr interpolationmode none
attr source packetSentToUpper
attr title "packets passed up, vector(count)"
vector 60 Scenario.normal_car[1].udp packetSent:vector(packetBytes) ETV
attr interpolationmode none
attr source packetSent
attr title "packets sent, vector(packetBytes)"
vector 61 Scenario.normal_car[1].wlan[0].mac rcvdPkFromHl:vector(packetBytes) ETV
attr interpolationmode none
attr source packetReceivedFromUpper
attr title "packets received from higher layer, vector(packetBytes)"
vector 62 Scenario.normal_car[1].wlan[0].mac.queue packetPushed:vector(packetBytes) ETV
attr interpolationmode none
attr title "packet pushed, vector(packetBytes)"
vector 63 Scenario.normal_car[1].wlan[0].mac.queue queueLength:vector ETV
attr interpolationmode sample-hold
attr source "count(packetPushed) - count(packetPopped) - count(packetRemoved) - count(packetDropped)"
attr title "queue length, vector"
vector 64 Scenario.normal_car[1].wlan[0].mac.queue packetPopped:vector(packetBytes) ETV
attr interpolationmode none
attr title "packet popped, vector(packetBytes)"
vector 65 Scenario.normal_car[1].wlan[0].mac.queue queueingTime:vector ETV
attr interpolationmode none
attr source queueingTime(packetPopped)
attr title "queueing times, vector"
attr unit s
vector 66 Scenario.normal_car[1].wlan[0].mac sentDownPk:vector(packetBytes) ETV
attr interpolationmode none
attr source packetSentToLower
attr title "packets sent to lower layer, vector(packetBytes)"
vector 67 Scenario.normal_car[6].udp packetSent:vector(packetBytes) ETV
attr interpolationmode none
attr source packetSent
attr title "packets sent, vector(packetBytes)"
vector 68 Scenario.normal_car[6].wlan[0].mac rcvdPkFromHl:vector(packetBytes) ETV
attr interpolationmode none
attr source packetReceivedFromUpper
attr title "packets received from higher layer, vector(packetBytes)"
vector 69 Scenario.normal_car[6].wlan[0].mac.queue packetPushed:vector(packetBytes) ETV
attr interpolationmode none
attr title "packet pushed, vector(packetBytes)"
vector 70 Scenario.normal_car[6].wlan[0].mac.queue queueLength:vector ETV
attr interpolationmode sample-hold
attr source "count(packetPushed) - count(packetPopped) - count(packetRemoved) - count(packetDropped)"
attr title "queue length, vector"
vector 71 Scenario.normal_car[6].wlan[0].mac.queue packetPopped:vector(packetBytes) ETV
attr interpolationmode none
attr title "packet popped, vector(packetBytes)"
vector 72 Scenario.normal_car[6].wlan[0].mac.queue queueingTime:vector ETV
attr interpolationmode none
attr source queueingTime(packetPopped)
attr title "queueing times, vector"
attr unit s
vector 73 Scenario.normal_car[6].wlan[0].mac sentDownPk:vector(packetBytes) ETV
attr interpolationmode none
attr source packetSentToLower
attr title "packets sent to lower layer, vector(packetBytes)"
vector 74 Scenario.normal_car[8].wlan[0].mac rcvdPkFromLl:vector(packetBytes) ETV
attr interpolationmode none
attr source packetReceivedFromLower
attr title "packets received from lower layer, vector(packetBytes)"
vector 75 Scenario.normal_car[8].wlan[0].mac passedUpPk:vector(packetBytes) ETV
attr interpolationmode none
attr source packetSentToUpper
attr title "packets passed to higher layer, vector(packetBytes)"
vector 76 Scenario.normal_car[8].udp packetReceived:vector(packetBytes) ETV
attr interpolationmode none
attr source packetReceived
attr title "packets received, vector(packetBytes)"
vector 77 Scenario.normal_car[8].udp passedUpPk:vector(count) ETV
attr interpolationmode none
attr source packetSentToUpper
attr title "packets passed up, vector(count)"
vector 78 Scenario.normal_car[10].wlan[0].radio radioMode:vector ETV
attr interpolationmode sample-hold
attr source radioModeChanged
attr title "Radio mode, vector"
vector 79 Scenario.normal_car[10].wlan[0].radio receptionState:vector ETV
attr interpolationmode sample-hold
attr source receptionStateChanged
attr title "Radio reception state, vector"
vector 80 Scenario.normal_car[10].wlan[0].radio transmissionState:vector ETV
attr interpolationmode sample-hold
attr source transmissionStateChanged
attr title "Radio transmission state, vector"
vector 81 Scenario.normal_car[10].wlan[0].mac rcvdPkFromLl:vector(packetBytes) ETV
attr interpolationmode none
attr source packetReceivedFromLower
attr title "packets received from lower layer, vector(packetBytes)"
vector 82 Scenario.normal_car[10].wlan[0].mac passedUpPk:vector(packetBytes) ETV
attr interpolationmode none
attr source packetSentToUpper
attr title "packets passed to higher layer, vector(packetBytes)"
vector 83 Scenario.normal_car[10].udp packetReceived:vector(packetBytes) ETV
attr interpolationmode none
attr source packetReceived
attr title "packets received, vector(packetBytes)"
vector 84 Scenario.normal_car[10].udp passedUpPk:vector(count) ETV
attr interpolationmode none
attr source packetSentToUpper
attr title "packets passed up, vector(count)"
vector 85 Scenario.normal_car[11].wlan[0].radio radioMode:vector ETV
attr interpolationmode sample-hold
attr source radioModeChanged
attr title "Radio mode, vector"
vector 86 Scenario.normal_car[11].wlan[0].radio receptionState:vector ETV
attr interpolationmode sample-hold
attr source receptionStateChanged
attr title "Radio reception state, vector"
vector 87 Scenario.normal_car[11].wlan[0].radio transmissionState:vector ETV
attr interpolationmode sample-hold
attr source transmissionStateChanged
attr title "Radio transmission state, vector"
vector 88 Scenario.normal_car[8].udp packetSent:vector(packetBytes) ETV
attr interpolationmode none
attr source packetSent
attr title "packets sent, vector(packetBytes)"
vector 89 Scenario.normal_car[8].wlan[0].mac rcvdPkFromHl:vector(packetBytes) ETV
attr interpolationmode none
attr source packetReceivedFromUpper
attr title "packets received from higher layer, vector(packetBytes)"
vector 90 Scenario.normal_car[8].wlan[0].mac.queue packetPushed:vector(packetBytes) ETV
attr interpolationmode none
attr title "packet pushed, vector(packetBytes)"
vector 91 Scenario.normal_car[8].wlan[0].mac.queue queueLength:vector ETV
attr interpolationmode sample-hold
attr source "count(packetPushed) - count(packetPopped) - count(packetRemoved) - count(packetDropped)"
attr title "queue length, vector"
vector 92 Scenario.normal_car[8].wlan[0].mac.queue packetPopped:vector(packetBytes) ETV
attr interpolationmode none
attr title "packet popped, vector(packetBytes)"
vector 93 Scenario.normal_car[8].wlan[0].mac.queue queueingTime:vector ETV
attr interpolationmode none
attr source queueingTime(packetPopped)
attr title "queueing times, vector"
attr unit s
vector 94 Scenario.normal_car[8].wlan[0].mac sentDownPk:vector(packetBytes) ETV
attr interpolationmode none
attr source packetSentToLower
attr title "packets sent to lower layer, vector(packetBytes)"
vector 95 Scenario.normal_car[1].app[0] packetSent:vector(packetBytes) ETV
attr interpolationmode none
attr source packetSent
attr title "packets sent, vector(packetBytes)"
vector 96 Scenario.normal_car[8].wlan[0].mac packetDropNotAddressedToUs:vector(packetBytes) ETV
attr interpolationmode none
attr source packetDropReasonIsNotAddressedToUs(packetDropped)
attr title "packet drop: not addressed to us, vector(packetBytes)"
vector 97 Scenario.normal_car[6].wlan[0].mac packetDropNotAddressedToUs:vector(packetBytes) ETV
attr interpolationmode none
attr source packetDropReasonIsNotAddressedToUs(packetDropped)
attr title "packet drop: not addressed to us, vector(packetBytes)"
vector 98 Scenario.normal_car[4].wlan[0].mac packetDropNotAddressedToUs:vector(packetBytes) ETV
attr interpolationmode none
attr source packetDropReasonIsNotAddressedToUs(packetDropped)
attr title "packet drop: not addressed to us, vector(packetBytes)"
vector 99 Scenario.normal_car[1].wlan[0].mac packetDropNotAddressedToUs:vector(packetBytes) ETV
attr interpolationmode none
attr source packetDropReasonIsNotAddressedToUs(packetDropped)
attr title "packet drop: not addressed to us, vector(packetBytes)"
vector 100 Scenario.normal_car[6].app[0] packetReceived:vector(packetBytes) ETV
attr interpolationmode none
attr source packetReceived
attr title "packets received, vector(packetBytes)"
vector 101 Scenario.normal_car[6].app[0] throughput:vector ETV
attr source throughput(packetReceived)
attr title "throughput, vector"
attr unit bps
vector 102 Scenario.normal_car[6].app[0] endToEndDelay:vector ETV
attr interpolationmode none
attr source dataAge(packetReceived)
attr title "end-to-end delay, vector"
attr unit s
vector 103 Scenario.normal_car[6].app[0] rcvdPkSeqNo:vector ETV
attr interpolationmode none
attr source appPkSeqNo(packetReceived)
attr title "received packet sequence number, vector"
vector 104 Scenario.attacker_car[2].wlan[0].mac packetDropNotAddressedToUs:vector(packetBytes) ETV
attr interpolationmode none
attr source packetDropReasonIsNotAddressedToUs(packetDropped)
attr title "packet drop: not addressed to us, vector(packetBytes)"
vector 105 Scenario.normal_car[12].wlan[0].radio radioMode:vector ETV
attr interpolationmode sample-hold
attr source radioModeChanged
attr title "Radio mode, vector"
vector 106 Scenario.normal_car[12].wlan[0].radio receptionState:vector ETV
attr interpolationmode sample-hold
attr source receptionStateChanged
attr title "Radio reception state, vector"
vector 107 Scenario.normal_car[12].wlan[0].radio transmissionState:vector ETV
attr interpolationmode sample-hold
attr source transmissionStateChanged
attr title "Radio transmission state, vector"
vector 108 Scenario.normal_car[13].wlan[0].radio radioMode:vector ETV
attr interpolationmode sample-hold
attr source radioModeChanged
attr title "Radio mode, vector"
vector 109 Scenario.normal_car[13].wlan[0].radio receptionState:vector ETV
attr interpolationmode sample-hold
attr source receptionStateChanged
attr title "Radio reception state, vector"
vector 110 Scenario.normal_car[13].wlan[0].radio transmissionState:vector ETV
attr interpolationmode sample-hold
attr source transmissionStateChanged
attr title "Radio transmission state, vector"
vector 111 Scenario.normal_car[13].wlan[0].mac rcvdPkFromLl:vector(packetBytes) ETV
attr interpolationmode none
attr source packetReceivedFromLower
attr title "packets received from lower layer, vector(packetBytes)"
vector 112 Scenario.normal_car[13].wlan[0].mac passedUpPk:vector(packetBytes) ETV
attr interpolationmode none
attr source packetSentToUpper
attr title "packets passed to higher layer, vector(packetBytes)"
vector 113 Scenario.normal_car[13].udp packetReceived:vector(packetBytes) ETV
attr interpolationmode none
attr source packetReceived
attr title "packets received, vector(packetBytes)"
vector 114 Scenario.normal_car[13].udp passedUpPk:vector(count) ETV
attr interpolationmode none
attr source packetSentToUpper
attr title "packets passed up, vector(count)"
vector 115 Scenario.normal_car[10].udp packetSent:vector(packetBytes) ETV
attr interpolationmode none
attr source packetSent
attr title "packets sent, vector(packetBytes)"
vector 116 Scenario.normal_car[10].wlan[0].mac rcvdPkFromHl:vector(packetBytes) ETV
attr interpolationmode none
attr source packetReceivedFromUpper
attr title "packets received from higher layer, vector(packetBytes)"
vector 117 Scenario.normal_car[10].wlan[0].mac.queue packetPushed:vector(packetBytes) ETV
attr interpolationmode none
attr title "packet pushed, vector(packetBytes)"
vector 118 Scenario.normal_car[10].wlan[0].mac.queue queueLength:vector ETV
attr interpolationmode sample-hold
attr source "count(packetPushed) - count(packetPopped) - count(packetRemoved) - count(packetDropped)"
attr title "queue length, vector"
vector 119 Scenario.normal_car[10].wlan[0].mac.queue packetPopped:vector(packetBytes) ETV
attr interpolationmode none
attr title "packet popped, vector(packetBytes)"
vector 120 Scenario.normal_car[10].wlan[0].mac.queue queueingTime:vector ETV
attr interpolationmode none
attr source queueingTime(packetPopped)
attr title "queueing times, vector"
attr unit s
vector 121 Scenario.normal_car[10].wlan[0].mac sentDownPk:vector(packetBytes) ETV
attr interpolationmode none
attr source packetSentToLower
attr title "packets sent to lower layer, vector(packetBytes)"
vector 122 Scenario.normal_car[14].wlan[0].radio radioMode:vector ETV
attr interpolationmode sample-hold
attr source radioModeChanged
attr title "Radio mode, vector"
vector 123 Scenario.normal_car[14].wlan[0].radio receptionState:vector ETV
attr interpolationmode sample-hold
attr source receptionStateChanged
attr title "Radio reception state, vector"
vector 124 Scenario.normal_car[14].wlan[0].radio transmissionState:vector ETV
attr interpolationmode sample-hold
attr source transmissionStateChanged
attr title "Radio transmission state, vector"
vector 125 Scenario.normal_car[14].wlan[0].mac rcvdPkFromLl:vector(packetBytes) ETV
attr interpolationmode none
attr source packetReceivedFromLower
attr title "packets received from lower layer, vector(packetBytes)"
vector 126 Scenario.normal_car[14].wlan[0].mac passedUpPk:vector(packetBytes) ETV
attr interpolationmode none
attr source packetSentToUpper
attr title "packets passed to higher layer, vector(packetBytes)"
vector 127 Scenario.normal_car[14].udp packetReceived:vector(packetBytes) ETV
attr interpolationmode none
attr source packetReceived
attr title "packets received, vector(packetBytes)"
vector 128 Scenario.normal_car[14].udp passedUpPk:vector(count) ETV
attr interpolationmode none
attr source packetSentToUpper
attr title "packets passed up, vector(count)"
vector 129 Scenario.normal_car[13].udp packetSent:vector(packetBytes) ETV
attr interpolationmode none
attr source packetSent
attr title "packets sent, vector(packetBytes)"
vector 130 Scenario.normal_car[13].wlan[0].mac rcvdPkFromHl:vector(packetBytes) ETV
attr interpolationmode none
attr source packetReceivedFromUpper
attr title "packets received from higher layer, vector(packetBytes)"
vector 131 Scenario.normal_car[13].wlan[0].mac.queue packetPushed:vector(packetBytes) ETV
attr interpolationmode none
attr title "packet pushed, vector(packetBytes)"
vector 132 Scenario.normal_car[13].wlan[0].mac.queue queueLength:vector ETV
attr interpolationmode sample-hold
attr source "count(packetPushed) - count(packetPopped) - count(packetRemoved) - count(packetDropped)"
attr title "queue length, vector"
vector 133 Scenario.normal_car[13].wlan[0].mac.queue packetPopped:vector(packetBytes) ETV
attr interpolationmode none
attr title "packet popped, vector(packetBytes)"
vector 134 Scenario.normal_car[13].wlan[0].mac.queue queueingTime:vector ETV
attr interpolationmode none
attr source queueingTime(packetPopped)
attr title "queueing times, vector"
attr unit s
vector 135 Scenario.normal_car[13].wlan[0].mac sentDownPk:vector(packetBytes) ETV
attr interpolationmode none
attr source packetSentToLower
attr title "packets sent to lower layer, vector(packetBytes)"
vector 136 Scenario.normal_car[0].wlan[0].mac rcvdPkFromLl:vector(packetBytes) ETV
attr interpolationmode none
attr source packetReceivedFromLower
attr title "packets received from lower layer, vector(packetBytes)"
vector 137 Scenario.normal_car[0].wlan[0].mac passedUpPk:vector(packetBytes) ETV
attr interpolationmode none
attr source packetSentToUpper
attr title "packets passed to higher layer, vector(packetBytes)"
vector 138 Scenario.normal_car[0].udp packetReceived:vector(packetBytes) ETV
attr interpolationmode none
attr source packetReceived
attr title "packets received, vector(packetBytes)"
vector 139 Scenario.normal_car[0].udp passedUpPk:vector(count) ETV
attr interpolationmode none
attr source packetSentToUpper
attr title "packets passed up, vector(count)"
vector 140 Scenario.normal_car[0].udp packetSent:vector(packetBytes) ETV
attr interpolationmode none
attr source packetSent
attr title "packets sent, vector(packetBytes)"
vector 141 Scenario.normal_car[0].wlan[0].mac rcvdPkFromHl:vector(packetBytes) ETV
attr interpolationmode none
attr source packetReceivedFromUpper
attr title "packets received from higher layer, vector(packetBytes)"
vector 142 Scenario.normal_car[0].wlan[0].mac.queue packetPushed:vector(packetBytes) ETV
attr interpolationmode none
attr title "packet pushed, vector(packetBytes)"
vector 143 Scenario.normal_car[0].wlan[0].mac.queue queueLength:vector ETV
attr interpolationmode sample-hold
attr source "count(packetPushed) - count(packetPopped) - count(packetRemoved) - count(packetDropped)"
attr title "queue length, vector"
vector 144 Scenario.normal_car[0].wlan[0].mac.queue packetPopped:vector(packetBytes) ETV
attr interpolationmode none
attr title "packet popped, vector(packetBytes)"
vector 145 Scenario.normal_car[0].wlan[0].mac.queue queueingTime:vector ETV
attr interpolationmode none
attr source queueingTime(packetPopped)
attr title "queueing times, vector"
attr unit s
vector 146 Scenario.normal_car[0].wlan[0].mac sentDownPk:vector(packetBytes) ETV
attr interpolationmode none
attr source packetSentToLower
attr title "packets sent to lower layer, vector(packetBytes)"
vector 147 Scenario.normal_car[3].wlan[0].mac rcvdPkFromLl:vector(packetBytes) ETV
attr interpolationmode none
attr source packetReceivedFromLower
attr title "packets received from lower layer, vector(packetBytes)"
vector 148 Scenario.normal_car[3].wlan[0].mac passedUpPk:vector(packetBytes) ETV
attr interpolationmode none
attr source packetSentToUpper
attr title "packets passed to higher layer, vector(packetBytes)"
vector 149 Scenario.normal_car[3].udp packetReceived:vector(packetBytes) ETV
attr interpolationmode none
attr source packetReceived
attr title "packets received, vector(packetBytes)"
vector 150 Scenario.normal_car[3].udp passedUpPk:vector(count) ETV
attr interpolationmode none
attr source packetSentToUpper
attr title "packets passed up, vector(count)"
vector 151 Scenario.normal_car[3].udp packetSent:vector(packetBytes) ETV
attr interpolationmode none
attr source packetSent
attr title "packets sent, vector(packetBytes)"
vector 152 Scenario.normal_car[3].wlan[0].mac rcvdPkFromHl:vector(packetBytes) ETV
attr interpolationmode none
attr source packetReceivedFromUpper
attr title "packets received from higher layer, vector(packetBytes)"
vector 153 Scenario.normal_car[3].wlan[0].mac.queue packetPushed:vector(packetBytes) ETV
attr interpolationmode none
attr title "packet pushed, vector(packetBytes)"
vector 154 Scenario.normal_car[3].wlan[0].mac.queue queueLength:vector ETV
attr interpolationmode sample-hold
attr source "count(packetPushed) - count(packetPopped) - count(packetRemoved) - count(packetDropped)"
attr title "queue length, vector"
vector 155 Scenario.normal_car[3].wlan[0].mac.queue packetPopped:vector(packetBytes) ETV
attr interpolationmode none
attr title "packet popped, vector(packetBytes)"
vector 156 Scenario.normal_car[3].wlan[0].mac.queue queueingTime:vector ETV
attr interpolationmode none
attr source queueingTime(packetPopped)
attr title "queueing times, vector"
attr unit s
vector 157 Scenario.normal_car[3].wlan[0].mac sentDownPk:vector(packetBytes) ETV
attr interpolationmode none
attr source packetSentToLower
attr title "packets sent to lower layer, vector(packetBytes)"
vector 158 Scenario.normal_car[5].wlan[0].mac rcvdPkFromLl:vector(packetBytes) ETV
attr interpolationmode none
attr source packetReceivedFromLower
attr title "packets received from lower layer, vector(packetBytes)"
vector 159 Scenario.normal_car[5].wlan[0].mac passedUpPk:vector(packetBytes) ETV
attr interpolationmode none
attr source packetSentToUpper
attr title "packets passed to higher layer, vector(packetBytes)"
vector 160 Scenario.normal_car[5].udp packetReceived:vector(packetBytes) ETV
attr interpolationmode none
attr source packetReceived
attr title "packets received, vector(packetBytes)"
vector 161 Scenario.normal_car[5].udp passedUpPk:vector(count) ETV
attr interpolationmode none
attr source packetSentToUpper
attr title "packets passed up, vector(count)"
vector 162 Scenario.normal_car[5].udp packetSent:vector(packetBytes) ETV
attr interpolationmode none
attr source packetSent
attr title "packets sent, vector(packetBytes)"
vector 163 Scenario.normal_car[5].wlan[0].mac rcvdPkFromHl:vector(packetBytes) ETV
attr interpolationmode none
attr source packetReceivedFromUpper
attr title "packets received from higher layer, vector(packetBytes)"
vector 164 Scenario.normal_car[5].wlan[0].mac.queue packetPushed:vector(packetBytes) ETV
attr interpolationmode none
attr title "packet pushed, vector(packetBytes)"
vector 165 Scenario.normal_car[5].wlan[0].mac.queue queueLength:vector ETV
attr interpolationmode sample-hold
attr source "count(packetPushed) - count(packetPopped) - count(packetRemoved) - count(packetDropped)"
attr title "queue length, vector"
vector 166 Scenario.normal_car[5].wlan[0].mac.queue packetPopped:vector(packetBytes) ETV
attr interpolationmode none
attr title "packet popped, vector(packetBytes)"
vector 167 Scenario.normal_car[5].wlan[0].mac.queue queueingTime:vector ETV
attr interpolationmode none
attr source queueingTime(packetPopped)
attr title "queueing times, vector"
attr unit s
vector 168 Scenario.normal_car[5].wlan[0].mac sentDownPk:vector(packetBytes) ETV
attr interpolationmode none
attr source packetSentToLower
attr title "packets sent to lower layer, vector(packetBytes)"
vector 169 Scenario.normal_car[7].wlan[0].mac rcvdPkFromLl:vector(packetBytes) ETV
attr interpolationmode none
attr source packetReceivedFromLower
attr title "packets received from lower layer, vector(packetBytes)"
vector 170 Scenario.normal_car[7].wlan[0].mac passedUpPk:vector(packetBytes) ETV
attr interpolationmode none
attr source packetSentToUpper
attr title "packets passed to higher layer, vector(packetBytes)"
vector 171 Scenario.normal_car[7].udp packetReceived:vector(packetBytes) ETV
attr interpolationmode none
attr source packetReceived
attr title "packets received, vector(packetBytes)"
vector 172 Scenario.normal_car[7].udp passedUpPk:vector(count) ETV
attr interpolationmode none
attr source packetSentToUpper
attr title "packets passed up, vector(count)"
vector 173 Scenario.normal_car[7].udp packetSent:vector(packetBytes) ETV
attr interpolationmode none
attr source packetSent
attr title "packets sent, vector(packetBytes)"
vector 174 Scenario.normal_car[7].wlan[0].mac rcvdPkFromHl:vector(packetBytes) ETV
attr interpolationmode none
attr source packetReceivedFromUpper
attr title "packets received from higher layer, vector(packetBytes)"
vector 175 Scenario.normal_car[7].wlan[0].mac.queue packetPushed:vector(packetBytes) ETV
attr interpolationmode none
attr title "packet pushed, vector(packetBytes)"
vector 176 Scenario.normal_car[7].wlan[0].mac.queue queueLength:vector ETV
attr interpolationmode sample-hold
attr source "count(packetPushed) - count(packetPopped) - count(packetRemoved) - count(packetDropped)"
attr title "queue length, vector"
vector 177 Scenario.normal_car[7].wlan[0].mac.queue packetPopped:vector(packetBytes) ETV
attr interpolationmode none
attr title "packet popped, vector(packetBytes)"
vector 178 Scenario.normal_car[7].wlan[0].mac.queue queueingTime:vector ETV
attr interpolationmode none
attr source queueingTime(packetPopped)
attr title "queueing times, vector"
attr unit s
vector 179 Scenario.normal_car[7].wlan[0].mac sentDownPk:vector(packetBytes) ETV
attr interpolationmode none
attr source packetSentToLower
attr title "packets sent to lower layer, vector(packetBytes)"
vector 180 Scenario.normal_car[9].wlan[0].mac rcvdPkFromLl:vector(packetBytes) ETV
attr interpolationmode none
attr source packetReceivedFromLower
attr title "packets received from lower layer, vector(packetBytes)"
vector 181 Scenario.normal_car[9].wlan[0].mac passedUpPk:vector(packetBytes) ETV
attr interpolationmode none
attr source packetSentToUpper
attr title "packets passed to higher layer, vector(packetBytes)"
vector 182 Scenario.normal_car[9].udp packetReceived:vector(packetBytes) ETV
attr interpolationmode none
attr source packetReceived
attr title "packets received, vector(packetBytes)"
vector 183 Scenario.normal_car[9].udp passedUpPk:vector(count) ETV
attr interpolationmode none
attr source packetSentToUpper
attr title "packets passed up, vector(count)"
vector 184 Scenario.normal_car[9].udp packetSent:vector(packetBytes) ETV
attr interpolationmode none
attr source packetSent
attr title "packets sent, vector(packetBytes)"
vector 185 Scenario.normal_car[9].wlan[0].mac rcvdPkFromHl:vector(packetBytes) ETV
attr interpolationmode none
attr source packetReceivedFromUpper
attr title "packets received from higher layer, vector(packetBytes)"
vector 186 Scenario.normal_car[9].wlan[0].mac.queue packetPushed:vector(packetBytes) ETV
attr interpolationmode none
attr title "packet pushed, vector(packetBytes)"
vector 187 Scenario.normal_car[9].wlan[0].mac.queue queueLength:vector ETV
attr interpolationmode sample-hold
attr source "count(packetPushed) - count(packetPopped) - count(packetRemoved) - count(packetDropped)"
attr title "queue length, vector"
vector 188 Scenario.normal_car[9].wlan[0].mac.queue packetPopped:vector(packetBytes) ETV
attr interpolationmode none
attr title "packet popped, vector(packetBytes)"
vector 189 Scenario.normal_car[9].wlan[0].mac.queue queueingTime:vector ETV
attr interpolationmode none
attr source queueingTime(packetPopped)
attr title "queueing times, vector"
attr unit s
vector 190 Scenario.normal_car[9].wlan[0].mac sentDownPk:vector(packetBytes) ETV
attr interpolationmode none
attr source packetSentToLower
attr title "packets sent to lower layer, vector(packetBytes)"
vector 191 Scenario.normal_car[11].wlan[0].mac rcvdPkFromLl:vector(packetBytes) ETV
attr interpolationmode none
attr source packetReceivedFromLower
attr title "packets received from lower layer, vector(packetBytes)"
vector 192 Scenario.normal_car[11].wlan[0].mac passedUpPk:vector(packetBytes) ETV
attr interpolationmode none
attr source packetSentToUpper
attr title "packets passed to higher layer, vector(packetBytes)"
vector 193 Scenario.normal_car[11].udp packetReceived:vector(packetBytes) ETV
attr interpolationmode none
attr source packetReceived
attr title "packets received, vector(packetBytes)"
vector 194 Scenario.normal_car[11].udp passedUpPk:vector(count) ETV
attr interpolationmode none
attr source packetSentToUpper
attr title "packets passed up, vector(count)"
vector 195 Scenario.normal_car[11].udp packetSent:vector(packetBytes) ETV
attr interpolationmode none
attr source packetSent
attr title "packets sent, vector(packetBytes)"
vector 196 Scenario.normal_car[11].wlan[0].mac rcvdPkFromHl:vector(packetBytes) ETV
attr interpolationmode none
attr source packetReceivedFromUpper
attr title "packets received from higher layer, vector(packetBytes)"
vector 197 Scenario.normal_car[11].wlan[0].mac.queue packetPushed:vector(packetBytes) ETV
attr interpolationmode none
attr title "packet pushed, vector(packetBytes)"
vector 198 Scenario.normal_car[11].wlan[0].mac.queue queueLength:vector ETV
attr interpolationmode sample-hold
attr source "count(packetPushed) - count(packetPopped) - count(packetRemoved) - count(packetDropped)"
attr title "queue length, vector"
vector 199 Scenario.normal_car[11].wlan[0].mac.queue packetPopped:vector(packetBytes) ETV
attr interpolationmode none
attr title "packet popped, vector(packetBytes)"
vector 200 Scenario.normal_car[11].wlan[0].mac.queue queueingTime:vector ETV
attr interpolationmode none
attr source queueingTime(packetPopped)
attr title "queueing times, vector"
attr unit s
vector 201 Scenario.normal_car[11].wlan[0].mac sentDownPk:vector(packetBytes) ETV
attr interpolationmode none
attr source packetSentToLower
attr title "packets sent to lower layer, vector(packetBytes)"
vector 202 Scenario.normal_car[12].wlan[0].mac rcvdPkFromLl:vector(packetBytes) ETV
attr interpolationmode none
attr source packetReceivedFromLower
attr title "packets received from lower layer, vector(packetBytes)"
vector 203 Scenario.normal_car[12].wlan[0].mac passedUpPk:vector(packetBytes) ETV
attr interpolationmode none
attr source packetSentToUpper
attr title "packets passed to higher layer, vector(packetBytes)"
vector 204 Scenario.normal_car[12].udp packetReceived:vector(packetBytes) ETV
attr interpolationmode none
attr source packetReceived
attr title "packets received, vector(packetBytes)"
vector 205 Scenario.normal_car[12].udp passedUpPk:vector(count) ETV
attr interpolationmode none
attr source packetSentToUpper
attr title "packets passed up, vector(count)"
vector 206 Scenario.normal_car[12].udp packetSent:vector(packetBytes) ETV
attr interpolationmode none
attr source packetSent
attr title "packets sent, vector(packetBytes)"
vector 207 Scenario.normal_car[12].wlan[0].mac rcvdPkFromHl:vector(packetBytes) ETV
attr interpolationmode none
attr source packetReceivedFromUpper
attr title "packets received from higher layer, vector(packetBytes)"
vector 208 Scenario.normal_car[12].wlan[0].mac.queue packetPushed:vector(packetBytes) ETV
attr interpolationmode none
attr title "packet pushed, vector(packetBytes)"
vector 209 Scenario.normal_car[12].wlan[0].mac.queue queueLength:vector ETV
attr interpolationmode sample-hold
attr source "count(packetPushed) - count(packetPopped) - count(packetRemoved) - count(packetDropped)"
attr title "queue length, vector"
vector 210 Scenario.normal_car[12].wlan[0].mac.queue packetPopped:vector(packetBytes) ETV
attr interpolationmode none
attr title "packet popped, vector(packetBytes)"
vector 211 Scenario.normal_car[12].wlan[0].mac.queue queueingTime:vector ETV
attr interpolationmode none
attr source queueingTime(packetPopped)
attr title "queueing times, vector"
attr unit s
vector 212 Scenario.normal_car[12].wlan[0].mac sentDownPk:vector(packetBytes) ETV
attr interpolationmode none
attr source packetSentToLower
attr title "packets sent to lower layer, vector(packetBytes)"
vector 213 Scenario.normal_car[0].wlan[0].mac packetDropNotAddressedToUs:vector(packetBytes) ETV
attr interpolationmode none
attr source packetDropReasonIsNotAddressedToUs(packetDropped)
attr title "packet drop: not addressed to us, vector(packetBytes)"
vector 214 Scenario.normal_car[14].udp packetSent:vector(packetBytes) ETV
attr interpolationmode none
attr source packetSent
attr title "packets sent, vector(packetBytes)"
vector 215 Scenario.normal_car[14].wlan[0].mac rcvdPkFromHl:vector(packetBytes) ETV
attr interpolationmode none
attr source packetReceivedFromUpper
attr title "packets received from higher layer, vector(packetBytes)"
vector 216 Scenario.normal_car[14].wlan[0].mac.queue packetPushed:vector(packetBytes) ETV
attr interpolationmode none
attr title "packet pushed, vector(packetBytes)"
vector 217 Scenario.normal_car[14].wlan[0].mac.queue queueLength:vector ETV
attr interpolationmode sample-hold
attr source "count(packetPushed) - count(packetPopped) - count(packetRemoved) - count(packetDropped)"
attr title "queue length, vector"
vector 218 Scenario.normal_car[14].wlan[0].mac.queue packetPopped:vector(packetBytes) ETV
attr interpolationmode none
attr title "packet popped, vector(packetBytes)"
vector 219 Scenario.normal_car[14].wlan[0].mac.queue queueingTime:vector ETV
attr interpolationmode none
attr source queueingTime(packetPopped)
attr title "queueing times, vector"
attr unit s
vector 220 Scenario.normal_car[14].wlan[0].mac sentDownPk:vector(packetBytes) ETV
attr interpolationmode none
attr source packetSentToLower
attr title "packets sent to lower layer, vector(packetBytes)"
vector 221 Scenario.normal_car[3].wlan[0].mac packetDropNotAddressedToUs:vector(packetBytes) ETV
attr interpolationmode none
attr source packetDropReasonIsNotAddressedToUs(packetDropped)
attr title "packet drop: not addressed to us, vector(packetBytes)"
vector 222 Scenario.normal_car[5].wlan[0].mac packetDropNotAddressedToUs:vector(packetBytes) ETV
attr interpolationmode none
attr source packetDropReasonIsNotAddressedToUs(packetDropped)
attr title "packet drop: not addressed to us, vector(packetBytes)"
vector 223 Scenario.normal_car[7].wlan[0].mac packetDropNotAddressedToUs:vector(packetBytes) ETV
attr interpolationmode none
attr source packetDropReasonIsNotAddressedToUs(packetDropped)
attr title "packet drop: not addressed to us, vector(packetBytes)"
vector 224 Scenario.normal_car[10].wlan[0].mac packetDropNotAddressedToUs:vector(packetBytes) ETV
attr interpolationmode none
attr source packetDropReasonIsNotAddressedToUs(packetDropped)
attr title "packet drop: not addressed to us, vector(packetBytes)"
vector 225 Scenario.normal_car[9].wlan[0].mac packetDropNotAddressedToUs:vector(packetBytes) ETV
attr interpolationmode none
attr source packetDropReasonIsNotAddressedToUs(packetDropped)
attr title "packet drop: not addressed to us, vector(packetBytes)"
vector 226 Scenario.normal_car[11].wlan[0].mac packetDropNotAddressedToUs:vector(packetBytes) ETV
attr interpolationmode none
attr source packetDropReasonIsNotAddressedToUs(packetDropped)
attr title "packet drop: not addressed to us, vector(packetBytes)"
vector 227 Scenario.normal_car[12].wlan[0].mac packetDropNotAddressedToUs:vector(packetBytes) ETV
attr interpolationmode none
attr source packetDropReasonIsNotAddressedToUs(packetDropped)
attr title "packet drop: not addressed to us, vector(packetBytes)"
vector 228 Scenario.normal_car[0].app[0] throughput:vector ETV
attr source throughput(packetReceived)
attr title "throughput, vector"
attr unit bps
vector 229 Scenario.normal_car[1].app[0] throughput:vector ETV
attr source throughput(packetReceived)
attr title "throughput, vector"
attr unit bps
vector 230 Scenario.attacker_car[2].app[0] throughput:vector ETV
attr source throughput(packetReceived)
attr title "throughput, vector"
attr unit bps
vector 231 Scenario.normal_car[3].app[0] throughput:vector ETV
attr source throughput(packetReceived)
attr title "throughput, vector"
attr unit bps
vector 232 Scenario.normal_car[4].app[0] throughput:vector ETV
attr source throughput(packetReceived)
attr title "throughput, vector"
attr unit bps
vector 233 Scenario.normal_car[5].app[0] throughput:vector ETV
attr source throughput(packetReceived)
attr title "throughput, vector"
attr unit bps
vector 234 Scenario.normal_car[7].app[0] throughput:vector ETV
attr source throughput(packetReceived)
attr title "throughput, vector"
attr unit bps
vector 235 Scenario.normal_car[8].app[0] throughput:vector ETV
attr source throughput(packetReceived)
attr title "throughput, vector"
attr unit bps
vector 236 Scenario.normal_car[9].app[0] throughput:vector ETV
attr source throughput(packetReceived)
attr title "throughput, vector"
attr unit bps
vector 237 Scenario.normal_car[10].app[0] throughput:vector ETV
attr source throughput(packetReceived)
attr title "throughput, vector"
attr unit bps
vector 238 Scenario.normal_car[11].app[0] throughput:vector ETV
attr source throughput(packetReceived)
attr title "throughput, vector"
attr unit bps
vector 239 Scenario.normal_car[12].app[0] throughput:vector ETV
attr source throughput(packetReceived)
attr title "throughput, vector"
attr unit bps
vector 240 Scenario.normal_car[13].app[0] throughput:vector ETV
attr source throughput(packetReceived)
attr title "throughput, vector"
attr unit bps
vector 241 Scenario.normal_car[14].app[0] throughput:vector ETV
attr source throughput(packetReceived)
attr title "throughput, vector"
attr unit bps
0	49343 30 2 2 0.1 0.1 3 0 4 4 16
1	49373 52515 2 215428 0.1 53.523429257781 1987 1 3 3981 9841
2	101888 14070 2 215515 0.1 53.528032022351 533 1 2 799 1331
3	115958 30 2 2 0.1 0.1 3 0 4 4 16
4	115988 46069 2 233870 0.1 60.401115736869 1759 1 3 3525 8785
5	162057 24574 2 233911 0.1 60.403371347895 955 1 2 1432 2386
6	186631 33 52 52 3.8 3.8 3 0 4 4 16
7	186664 65620 52 233955 3.8 60.405536952814 2498 1 3 5011 12359
8	252284 25269 52 233869 3.8 60.401115568045 963 1 2 1444 2406
9	277553 33 58 58 3.9 3.9 3 0 4 4 16
10	277586 67306 58 215516 3.9 53.528032231657 2445 1 3 4901 12087
11	344892 14774 58 215417 3.9 53.523429048475 539 1 2 808 1346
12	359666 39 113 113 7.5 7.5 3 0 4 4 16
13	359705 73918 113 233997 7.5 60.410222966809 2709 1 3 5423 13481
14	433623 25224 113 233949 7.5 60.405536742069 925 1 2 1387 2311
15	458847 39 119 119 7.6 7.6 3 0 4 4 16
16	458886 66007 119 215474 7.6 53.524132751147 2396 1 3 4809 11875
17	524893 14723 119 215374 7.6 53.521915408138 537 1 2 805 1341
18	539616 42 182 182 11.2 11.2 3 0 4 4 16
19	539658 72581 182 234036 11.2 60.414188011403 2652 1 3 5309 13181
20	612239 23826 182 233991 11.2 60.410222806556 875 1 2 1312 2186
21	636065 42 189 189 11.4 11.4 3 0 4 4 16
22	636107 62293 189 215377 11.4 53.521915531993 2258 1 3 4535 11213
23	698400 14462 189 215463 11.4 53.524132627292 527 1 2 790 1316
24	712862 42 257 257 14.9 14.9 3 0 4 4 16
25	712904 70927 257 234079 14.9 60.416101673317 2583 1 3 5169 12807
26	783831 22390 257 234035 14.9 60.414187863023 819 1 2 1228 2046
27	806221 42 266 266 15.1 15.1 3 0 4 4 16
28	806263 56316 266 215464 15.1 53.524132672211 2039 1 3 4085 10099
29	862579 14380 266 215208 15.1 53.519799824405 525 1 2 787 1311
30	876959 12798 334 233851 18.102744067512 60.400767568045 453 28 36 14456 461504
31	889757 13646 336 233853 18.102744067512 60.400767568045 481 48 1052 52972 32208656
32	903403 13646 336 233853 18.102744067512 60.400767568045 481 48 1052 52972 32208656
33	917049 26219 336 233853 18.102744067512 60.400767568045 962 0 1 481 481
34	943268 13647 336 233853 18.102744067512 60.400767568045 481 48 1052 52972 32208656
35	956915 13223 336 233853 18.102744067512 60.400767568045 481 0 0.03883985597 0.067628863092 0.0018144313622068
36	970138 13647 336 233853 18.102744067512 60.400767568045 481 71 1075 64035 34899817
37	983785 37262 349 233998 18.103092239773 60.410222966809 1315 63 1075 129513 43030715
38	1021047 36603 349 233998 18.103092239773 60.410222966809 1292 40 1052 90132 28880560
39	1057650 35876 351 234000 18.103092239773 60.410222966809 1268 20 36 40528 1295744
40	1093526 37305 351 234000 18.103092239773 60.410222966809 1268 1 1268 804546 680377734
41	1130831 24431 354 233871 18.103092240989 60.401115736869 864 71 1075 96752 41653024
42	1155262 23380 354 233871 18.103092240989 60.401115736869 829 48 56 43072 2238048
43	1178642 23380 356 233873 18.103092240989 60.401115736869 829 28 36 26492 846768
44	1202022 24101 356 233873 18.103092240989 60.401115736869 829 1 829 344035 190251355
45	1226123 12385 366 233931 18.106056462855 60.405188742069 438 28 36 14004 447824
46	1238508 13112 368 233933 18.106056462855 60.405188742069 462 48 1052 47008 26639680
47	1251620 13112 368 233933 18.106056462855 60.405188742069 462 48 1052 47008 26639680
48	1264732 25208 368 233933 18.106056462855 60.405188742069 924 0 1 462 462
49	1289940 13112 368 233933 18.106056462855 60.405188742069 462 48 1052 47008 26639680
50	1303052 12617 368 233933 18.106056462855 60.405188742069 462 0 0.001057678621 0.001057678621 1.1186840653205e-06
51	1315669 13112 368 233933 18.106056462855 60.405188742069 462 71 1075 57634 29046446
52	1328781 36336 381 234037 18.106404633113 60.414188011403 1279 63 1075 121861 37085159
53	1365117 35999 381 234037 18.106404633113 60.414188011403 1267 40 1052 91868 32128496
54	1401116 35999 383 234039 18.106404633113 60.414188011403 1267 20 1032 66528 28960576
55	1437115 37374 383 234039 18.106404633113 60.414188011403 1267 1 1267 803278 678769910
56	1474489 32935 386 233956 18.106404635116 60.405536952814 1161 71 1075 141019 68622577
57	1507424 31897 386 233956 18.106404635116 60.405536952814 1126 48 1052 86532 33954832
58	1539321 31049 388 233958 18.106404635116 60.405536952814 1098 28 36 35116 1123280
59	1570370 32138 388 233958 18.106404635116 60.405536952814 1098 1 1098 603351 441854049
60	1602508 13345 398 233893 18.106668187814 60.403023347895 488 28 1032 56604 44123056
61	1615853 13215 400 233895 18.106668187814 60.403023347895 477 48 1052 54792 34408672
62	1629068 13215 400 233895 18.106668187814 60.403023347895 477 48 1052 54792 34408672
63	1642283 25347 400 233895 18.106668187814 60.403023347895 954 0 1 477 477
64	1667630 13206 400 233895 18.106668187814 60.403023347895 477 48 1052 54792 34408672
65	1680836 12785 400 233895 18.106668187814 60.403023347895 477 0 0.099483650201 0.122287804188 0.010055324081226
66	1693621 13206 400 233895 18.106668187814 60.403023347895 477 71 1075 65763 37181437
67	1706827 12345 524 233973 18.210655903938 60.409874806556 437 28 36 13940 444912
68	1719172 12345 526 233975 18.210655903938 60.409874806556 437 48 56 22680 1177312
69	1731517 12345 526 233975 18.210655903938 60.409874806556 437 48 56 22680 1177312
70	1743862 23814 526 233975 18.210655903938 60.409874806556 874 0 1 437 437
71	1767676 12343 526 233975 18.210655903938 60.409874806556 437 48 56 22680 1177312
72	1780019 11945 526 233975 18.210655903938 60.409874806556 437 0 0.061735285496 0.067629997988 0.003833968185642
73	1791964 12343 526 233975 18.210655903938 60.409874806556 437 71 79 32731 2451765
74	1804307 35088 539 234080 18.211004037769 60.416101673317 1233 71 79 92427 6928713
75	1839395 34749 539 234080 18.211004037769 60.416101673317 1221 48 56 63492 3301680
76	1874144 34721 541 234082 18.211004037769 60.416101673317 1220 28 36 39044 1249616
77	1908865 36054 541 234082 18.211004037769 60.416101673317 1220 1 1220 744810 606027070
78	1944919 45 1079 1079 18.7 18.7 3 0 4 4 16
79	1944964 62081 1079 234041 18.7 60.414188020972 2257 1 3 4516 11188
80	2007045 20317 1079 234078 18.7 60.416101515368 739 1 2 1108 1846
81	2027362 30696 1210 234042 18.710912629742 60.414188020972 1077 63 75 80747 6054133
82	2058058 30613 1210 234042 18.710912629742 60.414188020972 1074 40 52 55832 2902592
83	2088671 30613 1212 234044 18.710912629742 60.414188020972 1074 20 32 34352 1098912
84	2119284 31654 1212 234044 18.710912629742 60.414188020972 1074 1 1074 577275 413521325
85	2150938 45 1227 1227 18.8 18.8 3 0 4 4 16
86	2150983 50928 1227 215479 18.8 53.524132761322 1843 1 3 3688 9150
87	2201911 14309 1227 215335 18.8 53.521638106172 521 1 2 781 1301
88	2216220 11569 3026 234017 19.907921605612 60.413839863023 408 20 32 13040 416928
89	2227789 11597 3028 234019 19.907921605612 60.413839863023 409 40 52 21248 1104032
90	2239386 11597 3028 234019 19.907921605612 60.413839863023 409 40 52 21248 1104032
91	2250983 22376 3028 234019 19.907921605612 60.413839863023 818 0 1 409 409
92	2273359 11597 3028 234019 19.907921605612 60.413839863023 409 40 52 21248 1104032
93	2284956 11188 3028 234019 19.907921605612 60.413839863023 409 0 0 0 0
94	2296144 11597 3028 234019 19.907921605612 60.413839863023 409 63 75 30655 2297801
95	2307741 715 3066 232732 20 60 41 1024 1024 41984 42991616
96	2308456 339 3999 226039 20.326045015981 57.347054637623 12 71 71 852 60492
97	2308795 337 4027 226079 20.32857019041 57.351997826431 12 71 71 852 60492
98	2309132 659 4068 225853 20.332073735502 57.336337980202 23 71 1075 9665 9320615
99	2309791 1051 4122 232792 20.340770025405 60.00869633259 35 71 1075 34613 36995123
100	2310842 814 4154 232901 20.345118213414 60.013044537254 26 1024 1024 26624 27262976
101	2311656 10215 4154 234105 0.1 60.5 605 0 81920 2129920 174483046400
102	2321871 1072 4154 232901 20.345118213414 60.013044537254 26 0.008696378265 0.360694248773 1.665662318234 0.4826422492089
103	2322943 752 4154 232901 20.345118213414 60.013044537254 26 0 40 528 15894
104	2323695 1073 4156 232903 20.345118215939 60.013044588311 35 71 1075 28589 30091619
105	2324768 48 8188 8188 22.5 22.5 3 0 4 4 16
106	2324816 33160 8188 215351 22.5 53.521638257515 1156 1 3 2313 5755
107	2357976 14748 8188 215115 22.5 53.516477473977 519 1 2 778 1296
108	2372724 48 8188 8188 22.5 22.5 3 0 4 4 16
109	2372772 57502 8188 215346 22.5 53.521638242585 2008 1 3 4019 9933
110	2430274 15086 8188 215161 22.5 53.51806762559 531 1 2 796 1326
111	2445360 28027 8386 215347 22.51390925997 53.521638242585 946 75 75 70950 5321250
112	2473387 28027 8386 215347 22.51390925997 53.521638242585 946 52 52 49192 2557984
113	2501414 28027 8388 215349 22.51390925997 53.521638242585 946 32 32 30272 968704
114	2529441 28865 8388 215349 22.51390925997 53.521638242585 946 1 946 447931 282644461
115	2558306 10889 10986 234060 23.717240611282 60.415753515368 369 32 32 11808 377856
116	2569195 10889 10988 234062 23.717240611282 60.415753515368 369 52 52 19188 997776
117	2580084 10889 10988 234062 23.717240611282 60.415753515368 369 52 52 19188 997776
118	2590973 21040 10988 234062 23.717240611282 60.415753515368 738 0 1 369 369
119	2612013 10889 10988 234062 23.717240611282 60.415753515368 369 52 52 19188 997776
120	2622902 10520 10988 234062 23.717240611282 60.415753515368 369 0 0 0 0
121	2633422 10889 10988 234062 23.717240611282 60.415753515368 369 75 75 27675 2075625
122	2644311 51 16960 16960 26.2 26.2 3 0 4 4 16
123	2644362 37502 16960 215469 26.2 53.524132688818 1308 1 3 2625 6493
124	2681864 12959 16960 215262 26.2 53.520765630045 455 1 2 682 1136
125	2694823 18304 17213 215470 26.217643062695 53.524132688818 617 75 75 46275 3470625
126	2713127 18304 17213 215470 26.217643062695 53.524132688818 617 52 52 32084 1668368
127	2731431 18304 17215 215472 26.217643062695 53.524132688818 617 32 32 19744 631808
128	2749735 18813 17215 215472 26.217643062695 53.524132688818 617 1 617 190653 78485485
129	2768548 7800 20642 215143 27.513783654597 53.51771962559 265 32 32 8480 271360
130	2776348 7800 20644 215145 27.513783654597 53.51771962559 265 52 52 13780 716560
131	2784148 7800 20644 215145 27.513783654597 53.51771962559 265 52 52 13780 716560
132	2791948 15070 20644 215145 27.513783654597 53.51771962559 530 0 1 265 265
133	2807018 7800 20644 215145 27.513783654597 53.51771962559 265 52 52 13780 716560
134	2814818 7535 20644 215145 27.513783654597 53.51771962559 265 0 0 0 0
135	2822353 7800 20644 215145 27.513783654597 53.51771962559 265 75 75 19875 1490625
136	2830153 27561 22440 215429 28.104166496495 53.523429257781 936 63 1075 78128 14454616
137	2857714 27057 22440 215429 28.104166496495 53.523429257781 919 40 1052 48756 3585904
138	2884771 27026 22442 215431 28.104166496495 53.523429257781 918 20 36 29344 938240
139	2911797 27836 22442 215431 28.104166496495 53.523429257781 918 1 918 421821 258295059
140	2939633 7799 22499 215497 28.107068732148 53.527684022351 265 28 32 8476 271120
141	2947432 7830 22501 215499 28.107068732148 53.527684022351 266 48 1052 14828 1822864
142	2955262 7830 22501 215499 28.107068732148 53.527684022351 266 48 1052 14828 1822864
143	2963092 15124 22501 215499 28.107068732148 53.527684022351 532 0 1 266 266
144	2978216 7830 22501 215499 28.107068732148 53.527684022351 266 48 1052 14828 1822864
145	2986046 7575 22501 215499 28.107068732148 53.527684022351 266 0 0.003313745279 0.003313745279 1.0980907774095e-05
146	2993621 7830 22501 215499 28.107068732148 53.527684022351 266 71 1075 20946 2645666
147	3001451 33582 22519 215517 28.107416906549 53.528032231657 1137 63 1075 90219 12137609
148	3035033 33284 22519 215517 28.107416906549 53.528032231657 1127 40 56 58568 3043968
149	3068317 33284 22521 215519 28.107416906549 53.528032231657 1127 20 36 36028 1152048
150	3101601 34431 22521 215519 28.107416906549 53.528032231657 1127 1 1127 635628 477780380
151	3136032 7919 22584 215398 28.111354617316 53.523081048475 269 28 32 8592 274496
152	3143951 7919 22586 215400 28.111354617316 53.523081048475 269 48 52 13972 725776
153	3151870 7919 22586 215400 28.111354617316 53.523081048475 269 48 52 13972 725776
154	3159789 15300 22586 215400 28.111354617316 53.523081048475 538 0 1 269 269
155	3175089 7919 22586 215400 28.111354617316 53.523081048475 269 48 52 13972 725776
156	3183008 7663 22586 215400 28.111354617316 53.523081048475 269 0 0.022524072951 0.022524072951 0.00050733386230197
157	3190671 7919 22586 215400 28.111354617316 53.523081048475 269 71 75 20159 1510789
158	3198590 33090 22604 215475 28.11170278853 53.524132751147 1120 71 1075 86948 9742536
159	3231680 32678 22604 215475 28.11170278853 53.524132751147 1106 48 56 57504 2989952
160	3264358 32678 22606 215477 28.11170278853 53.524132751147 1106 28 36 35384 1132192
161	3297036 33783 22606 215477 28.11170278853 53.524132751147 1106 1 1106 612171 451578141
162	3330819 7891 22671 215317 28.114735165841 53.521567408138 268 28 32 8564 273712
163	3338710 7891 22673 215319 28.114735165841 53.521567408138 268 48 52 13924 723472
164	3346601 7891 22673 215319 28.114735165841 53.521567408138 268 48 52 13924 723472
165	3354492 15246 22673 215319 28.114735165841 53.521567408138 536 0 1 268 268
166	3369738 7891 22673 215319 28.114735165841 53.521567408138 268 48 52 13924 723472
167	3377629 7636 22673 215319 28.114735165841 53.521567408138 268 0 0.000281881131 0.000281881131 7.9456972013839e-08
168	3385265 7891 22673 215319 28.114735165841 53.521567408138 268 71 75 20088 1505748
169	3393156 31421 22696 215342 28.115083342643 53.521638240202 1062 71 1075 80618 7119174
170	3424577 31158 22696 215342 28.115083342643 53.521638240202 1053 48 56 54756 2847408
171	3455735 31158 22698 215344 28.115083342643 53.521638240202 1053 28 36 33696 1078368
172	3486893 32157 22698 215344 28.115083342643 53.521638240202 1053 1 1053 554931 389746539
173	3519050 7750 22713 215445 28.116175356884 53.523784627292 263 28 32 8412 269072
174	3526800 7750 22715 215447 28.116175356884 53.523784627292 263 48 52 13672 710752
175	3534550 7750 22715 215447 28.116175356884 53.523784627292 263 48 52 13672 710752
176	3542300 14974 22715 215447 28.116175356884 53.523784627292 526 0 1 263 263
177	3557274 7750 22715 215447 28.116175356884 53.523784627292 263 48 52 13672 710752
178	3565024 7487 22715 215447 28.116175356884 53.523784627292 263 0 0 0 0
179	3572511 7750 22715 215447 28.116175356884 53.523784627292 263 71 75 19721 1478791
180	3580261 28464 22752 215465 28.11652352551 53.524132672211 961 71 79 72051 5402185
181	3608725 28260 22752 215465 28.11652352551 53.524132672211 954 48 56 49612 2580080
182	3636985 28260 22754 215467 28.11652352551 53.524132672211 954 28 36 30532 977200
183	3665245 29106 22754 215467 28.11652352551 53.524132672211 954 1 954 455535 289872105
184	3694351 7707 22799 215190 28.121331376298 53.519451824405 262 28 32 8376 267808
185	3702058 7707 22801 215192 28.121331376298 53.519451824405 262 48 52 13616 707648
186	3709765 7707 22801 215192 28.121331376298 53.519451824405 262 48 52 13616 707648
187	3717472 14890 22801 215192 28.121331376298 53.519451824405 524 0 1 262 262
188	3732362 7707 22801 215192 28.121331376298 53.519451824405 262 48 52 13616 707648
189	3740069 7471 22801 215192 28.121331376298 53.519451824405 262 0 0.098872400163 0.09907783284 0.0097757937165772
190	3747540 7707 22801 215192 28.121331376298 53.519451824405 262 71 75 19642 1472582
191	3755247 26256 22819 215480 28.121679542858 53.524132761322 886 71 1075 67434 6131414
192	3781503 26135 22819 215480 28.121679542858 53.524132761322 882 48 52 45860 2384528
193	3807638 26135 22821 215482 28.121679542858 53.524132761322 882 28 32 28220 902928
194	3833773 26909 22821 215482 28.121679542858 53.524132761322 882 1 882 389403 229098765
195	3860682 7667 22842 215298 28.123955386944 53.521290106172 260 32 32 8320 266240
196	3868349 7667 22844 215300 28.123955386944 53.521290106172 260 52 52 13520 703040
197	3876016 7667 22844 215300 28.123955386944 53.521290106172 260 52 52 13520 703040
198	3883683 14814 22844 215300 28.123955386944 53.521290106172 520 0 1 260 260
199	3898497 7667 22844 215300 28.123955386944 53.521290106172 260 52 52 13520 703040
200	3906164 7407 22844 215300 28.123955386944 53.521290106172 260 0 0 0 0
201	3913571 7667 22844 215300 28.123955386944 53.521290106172 260 75 75 19500 1462500
202	3921238 16751 22867 215352 28.124303556023 53.521638257515 564 71 1075 45292 6621332
203	3937989 16595 22867 215352 28.124303556023 53.521638257515 559 52 52 29068 1511536
204	3954584 16595 22869 215354 28.124303556023 53.521638257515 559 32 32 17888 572416
205	3971179 17046 22869 215354 28.124303556023 53.521638257515 559 1 559 156520 58381960
206	3988225 7625 22886 215097 28.125462064151 53.516129473977 259 32 32 8288 265216
207	3995850 7625 22888 215099 28.125462064151 53.516129473977 259 52 52 13468 700336
208	4003475 7625 22888 215099 28.125462064151 53.516129473977 259 52 52 13468 700336
209	4011100 14732 22888 215099 28.125462064151 53.516129473977 518 0 1 259 259
210	4025832 7625 22888 215099 28.125462064151 53.516129473977 259 52 52 13468 700336
211	4033457 7366 22888 215099 28.125462064151 53.516129473977 259 0 0 0 0
212	4040823 7625 22888 215099 28.125462064151 53.516129473977 259 75 75 19425 1456875
213	4048448 504 27857 105661 29.00434815152 39.413994446717 17 71 1075 8235 8139785
214	4048952 6698 41943 215244 31.21251985085 53.520417630045 227 32 32 7264 232448
215	4055650 6698 41945 215246 31.21251985085 53.520417630045 227 52 52 11804 613808
216	4062348 6698 41945 215246 31.21251985085 53.520417630045 227 52 52 11804 613808
217	4069046 12942 41945 215246 31.21251985085 53.520417630045 454 0 1 227 227
218	4081988 6698 41945 215246 31.21251985085 53.520417630045 227 52 52 11804 613808
219	4088686 6471 41945 215246 31.21251985085 53.520417630045 227 0 0 0 0
220	4095157 6698 41945 215246 31.21251985085 53.520417630045 227 75 75 17025 1276875
221	4101855 298 43178 84486 31.333475608627 36.6239110004 10 71 1075 5730 5803330
222	4102153 412 47318 128975 32.004348212641 42.368398196781 14 71 1075 4006 3522326
223	4102565 263 61643 128968 34.00434820154 42.368398033365 9 71 1075 1643 1195953
224	4102828 86 75676 83561 35.81027229002 36.614633456619 3 71 71 213 15123
225	4102914 204 76275 161066 35.816460747482 46.324620472944 7 71 71 497 35287
226	4103118 121 79467 161350 36.141662929313 46.340115323433 4 71 1075 1288 1170748
227	4103239 156 161057 174472 46.324620389908 48.013044577736 5 71 1075 3367 3476957
228	4103395 10671 234105 234105 0.1 60.5 605 0 0 0 0
229	4114066 10671 234105 234105 0.1 60.5 605 0 0 0 0
230	4124737 10671 234105 234105 0.1 60.5 605 0 0 0 0
231	4135408 10671 234105 234105 0.1 60.5 605 0 0 0 0
232	4146079 10671 234105 234105 0.1 60.5 605 0 0 0 0
233	4156750 10671 234105 234105 0.1 60.5 605 0 0 0 0
234	4167421 10671 234105 234105 0.1 60.5 605 0 0 0 0
235	4178092 10671 234105 234105 0.1 60.5 605 0 0 0 0
236	4188763 10671 234105 234105 0.1 60.5 605 0 0 0 0
237	4199434 10671 234105 234105 0.1 60.5 605 0 0 0 0
238	4210105 10671 234105 234105 0.1 60.5 605 0 0 0 0
239	4220776 10671 234105 234105 0.1 60.5 605 0 0 0 0
240	4231447 10671 234105 234105 0.1 60.5 605 0 0 0 0
241	4242118 10671 234105 234105 0.1 60.5 605 0 0 0 0

