file 1905133 1684418908                                         
version 2
run AodvRreqFloodingMitigation2Scenario-0-20230518-16:08:16-7274
attr configname AodvRreqFloodingMitigation2Scenario
attr datetime 20230518-16:08:16
attr experiment AodvRreqFloodingMitigation2Scenario
attr inifile omnetpp.ini
attr iterationvars ""
attr iterationvarsf ""
attr measurement ""
attr network Scenario
attr processid 7274
attr repetition 0
attr replication #0
attr resultdir results
attr runnumber 0
attr seedset 0
param *.normal_car[*].routing.isDynamic true
param *.attacker_car[*].routing.floodingTimer 250ms
param *.manager.moduleType "\"normal_car=networkprojectvanet.flooding.flooding_mitigation.SecureAodvCar *=networkprojectvanet.flooding.flooding_attack.AttackerAodvCar\""
param *.manager.moduleDisplayString "\"normal_car='i=veins/node/car,green;is=vs' *='i=veins/node/car,red;is=vs'\""
param *.manager.moduleName "\"normal_car=normal_car *=attacker_car\""
param *.normal_car[*].routing.antiFloodingTimeout 1s
param *.normal_car[*].routing.antiFloodingLimit 6
param *.manager.moduleType "\"normal_car=networkprojectvanet.veins_inet.AodvCar *=networkprojectvanet.flooding.flooding_attack.AttackerAodvCar\""
param *.manager.moduleDisplayString "\"normal_car='i=veins/node/car;is=vs' *='i=veins/node/car,red;is=vs'\""
param *.manager.moduleName "\"normal_car=normal_car *=attacker_car\""
param *.attacker_car[*].numApps 1
param *.attacker_car[*].app[0].typename "\"UdpSink\""
param *.attacker_car[*].app[0].localPort 5000
param *.attacker_car[*].routing.deletePeriod 5s
param *.attacker_car[*].routing.floodingTimer 100ms
param *.attacker_car[*].routing.floodingStart 18.1s
param *.*_car[*].ipv4.arp.typename "\"GlobalArp\""
param *.normal_car[1].numApps 1
param *.normal_car[1].app[0].typename "\"UdpBasicApp\""
param *.normal_car[1].app[0].destAddresses "\"normal_car[6]\""
param *.normal_car[1].app[0].localPort 5000
param *.normal_car[1].app[0].destPort 5000
param *.normal_car[1].app[0].messageLength 1024B
param *.normal_car[1].app[0].sendInterval 1s
param *.normal_car[1].app[0].startTime 20s
param *.normal_car[1].app[0].packetName "\"UDPData\""
param *.normal_car[*].numApps 1
param *.normal_car[*].app[0].typename "\"UdpSink\""
param *.normal_car[*].app[0].localPort 5000
param *.normal_car[*].routing.deletePeriod 5s
param *.*_car[*].wlan[*].typename "\"AckingWirelessInterface\""
param *.*_car[*].wlan[*].bitrate 2Mbps
param *.*_car[*].wlan[*].mac.headerLength 23B
param *.*_car[*].wlan[*].radio.typename "\"UnitDiskRadio\""
param *.*_car[*].wlan[*].radio.transmitter.headerLength 96b
param *.*_car[*].wlan[*].radio.transmitter.communicationRange 70m
param *.*_car[*].wlan[*].radio.transmitter.interferenceRange 0m
param *.*_car[*].wlan[*].radio.transmitter.detectionRange 0m
param *.*_car[*].wlan[*].radio.receiver.ignoreInterference true
param *.*_car[*].ipv4.configurator.typename "\"HostAutoConfigurator\""
param *.*_car[*].ipv4.configurator.interfaces "\"wlan0\""
param *.*_car[*].ipv4.configurator.mcastGroups "\"224.0.0.1\""
param *.*_car[*].mobility.typename "\"VeinsInetMobility\""
param *.manager.updateInterval 0.1s
param *.manager.launchConfig "xmldoc(\"arcavacatamap.launchd.xml\")"
param *.manager.moduleType "\"normal_car=networkprojectvanet.veins_inet.AodvCar *=networkprojectvanet.veins_inet.AodvCar\""
param *.manager.moduleDisplayString "\"normal_car='i=veins/node/car;is=vs' *='i=veins/node/car;is=vs'\""
param *.manager.moduleName "\"normal_car=normal_car *=normal_car\""
param *.*_car[*].wlan[0].radio.displayCommunicationRange true
param *.visualizer.networkRouteVisualizer.displayRoutes true

vector 0 Scenario.normal_car[0].wlan[0].radio radioMode:vector ETV
attr interpolationmode sample-hold
attr source radioModeChanged
attr title "Radio mode, vector"
vector 1 Scenario.normal_car[0].wlan[0].radio receptionState:vector ETV
attr interpolationmode sample-hold
attr source receptionStateChanged
attr title "Radio reception state, vector"
vector 2 Scenario.normal_car[0].wlan[0].radio transmissionState:vector ETV
attr interpolationmode sample-hold
attr source transmissionStateChanged
attr title "Radio transmission state, vector"
vector 3 Scenario.normal_car[1].wlan[0].radio radioMode:vector ETV
attr interpolationmode sample-hold
attr source radioModeChanged
attr title "Radio mode, vector"
vector 4 Scenario.normal_car[1].wlan[0].radio receptionState:vector ETV
attr interpolationmode sample-hold
attr source receptionStateChanged
attr title "Radio reception state, vector"
vector 5 Scenario.normal_car[1].wlan[0].radio transmissionState:vector ETV
attr interpolationmode sample-hold
attr source transmissionStateChanged
attr title "Radio transmission state, vector"
vector 6 Scenario.attacker_car[2].wlan[0].radio radioMode:vector ETV
attr interpolationmode sample-hold
attr source radioModeChanged
attr title "Radio mode, vector"
vector 7 Scenario.attacker_car[2].wlan[0].radio receptionState:vector ETV
attr interpolationmode sample-hold
attr source receptionStateChanged
attr title "Radio reception state, vector"
vector 8 Scenario.attacker_car[2].wlan[0].radio transmissionState:vector ETV
attr interpolationmode sample-hold
attr source transmissionStateChanged
attr title "Radio transmission state, vector"
vector 9 Scenario.normal_car[3].wlan[0].radio radioMode:vector ETV
attr interpolationmode sample-hold
attr source radioModeChanged
attr title "Radio mode, vector"
vector 10 Scenario.normal_car[3].wlan[0].radio receptionState:vector ETV
attr interpolationmode sample-hold
attr source receptionStateChanged
attr title "Radio reception state, vector"
vector 11 Scenario.normal_car[3].wlan[0].radio transmissionState:vector ETV
attr interpolationmode sample-hold
attr source transmissionStateChanged
attr title "Radio transmission state, vector"
vector 12 Scenario.normal_car[4].wlan[0].radio radioMode:vector ETV
attr interpolationmode sample-hold
attr source radioModeChanged
attr title "Radio mode, vector"
vector 13 Scenario.normal_car[4].wlan[0].radio receptionState:vector ETV
attr interpolationmode sample-hold
attr source receptionStateChanged
attr title "Radio reception state, vector"
vector 14 Scenario.normal_car[4].wlan[0].radio transmissionState:vector ETV
attr interpolationmode sample-hold
attr source transmissionStateChanged
attr title "Radio transmission state, vector"
vector 15 Scenario.normal_car[5].wlan[0].radio radioMode:vector ETV
attr interpolationmode sample-hold
attr source radioModeChanged
attr title "Radio mode, vector"
vector 16 Scenario.normal_car[5].wlan[0].radio receptionState:vector ETV
attr interpolationmode sample-hold
attr source receptionStateChanged
attr title "Radio reception state, vector"
vector 17 Scenario.normal_car[5].wlan[0].radio transmissionState:vector ETV
attr interpolationmode sample-hold
attr source transmissionStateChanged
attr title "Radio transmission state, vector"
vector 18 Scenario.normal_car[6].wlan[0].radio radioMode:vector ETV
attr interpolationmode sample-hold
attr source radioModeChanged
attr title "Radio mode, vector"
vector 19 Scenario.normal_car[6].wlan[0].radio receptionState:vector ETV
attr interpolationmode sample-hold
attr source receptionStateChanged
attr title "Radio reception state, vector"
vector 20 Scenario.normal_car[6].wlan[0].radio transmissionState:vector ETV
attr interpolationmode sample-hold
attr source transmissionStateChanged
attr title "Radio transmission state, vector"
vector 21 Scenario.normal_car[7].wlan[0].radio radioMode:vector ETV
attr interpolationmode sample-hold
attr source radioModeChanged
attr title "Radio mode, vector"
vector 22 Scenario.normal_car[7].wlan[0].radio receptionState:vector ETV
attr interpolationmode sample-hold
attr source receptionStateChanged
attr title "Radio reception state, vector"
vector 23 Scenario.normal_car[7].wlan[0].radio transmissionState:vector ETV
attr interpolationmode sample-hold
attr source transmissionStateChanged
attr title "Radio transmission state, vector"
vector 24 Scenario.normal_car[8].wlan[0].radio radioMode:vector ETV
attr interpolationmode sample-hold
attr source radioModeChanged
attr title "Radio mode, vector"
vector 25 Scenario.normal_car[8].wlan[0].radio receptionState:vector ETV
attr interpolationmode sample-hold
attr source receptionStateChanged
attr title "Radio reception state, vector"
vector 26 Scenario.normal_car[8].wlan[0].radio transmissionState:vector ETV
attr interpolationmode sample-hold
attr source transmissionStateChanged
attr title "Radio transmission state, vector"
vector 27 Scenario.normal_car[9].wlan[0].radio radioMode:vector ETV
attr interpolationmode sample-hold
attr source radioModeChanged
attr title "Radio mode, vector"
vector 28 Scenario.normal_car[9].wlan[0].radio receptionState:vector ETV
attr interpolationmode sample-hold
attr source receptionStateChanged
attr title "Radio reception state, vector"
vector 29 Scenario.normal_car[9].wlan[0].radio transmissionState:vector ETV
attr interpolationmode sample-hold
attr source transmissionStateChanged
attr title "Radio transmission state, vector"
vector 30 Scenario.attacker_car[2].udp packetSent:vector(packetBytes) ETV
attr interpolationmode none
attr source packetSent
attr title "packets sent, vector(packetBytes)"
vector 31 Scenario.attacker_car[2].wlan[0].mac rcvdPkFromHl:vector(packetBytes) ETV
attr interpolationmode none
attr source packetReceivedFromUpper
attr title "packets received from higher layer, vector(packetBytes)"
vector 32 Scenario.attacker_car[2].wlan[0].mac.queue packetPushed:vector(packetBytes) ETV
attr interpolationmode none
attr title "packet pushed, vector(packetBytes)"
vector 33 Scenario.attacker_car[2].wlan[0].mac.queue queueLength:vector ETV
attr interpolationmode sample-hold
attr source "count(packetPushed) - count(packetPopped) - count(packetRemoved) - count(packetDropped)"
attr title "queue length, vector"
vector 34 Scenario.attacker_car[2].wlan[0].mac.queue packetPopped:vector(packetBytes) ETV
attr interpolationmode none
attr title "packet popped, vector(packetBytes)"
vector 35 Scenario.attacker_car[2].wlan[0].mac.queue queueingTime:vector ETV
attr interpolationmode none
attr source queueingTime(packetPopped)
attr title "queueing times, vector"
attr unit s
vector 36 Scenario.attacker_car[2].wlan[0].mac sentDownPk:vector(packetBytes) ETV
attr interpolationmode none
attr source packetSentToLower
attr title "packets sent to lower layer, vector(packetBytes)"
vector 37 Scenario.normal_car[4].wlan[0].mac rcvdPkFromLl:vector(packetBytes) ETV
attr interpolationmode none
attr source packetReceivedFromLower
attr title "packets received from lower layer, vector(packetBytes)"
vector 38 Scenario.normal_car[4].wlan[0].mac passedUpPk:vector(packetBytes) ETV
attr interpolationmode none
attr source packetSentToUpper
attr title "packets passed to higher layer, vector(packetBytes)"
vector 39 Scenario.normal_car[4].udp packetReceived:vector(packetBytes) ETV
attr interpolationmode none
attr source packetReceived
attr title "packets received, vector(packetBytes)"
vector 40 Scenario.normal_car[4].udp passedUpPk:vector(count) ETV
attr interpolationmode none
attr source packetSentToUpper
attr title "packets passed up, vector(count)"
vector 41 Scenario.normal_car[1].wlan[0].mac rcvdPkFromLl:vector(packetBytes) ETV
attr interpolationmode none
attr source packetReceivedFromLower
attr title "packets received from lower layer, vector(packetBytes)"
vector 42 Scenario.normal_car[1].wlan[0].mac passedUpPk:vector(packetBytes) ETV
attr interpolationmode none
attr source packetSentToUpper
attr title "packets passed to higher layer, vector(packetBytes)"
vector 43 Scenario.normal_car[1].udp packetReceived:vector(packetBytes) ETV
attr interpolationmode none
attr source packetReceived
attr title "packets received, vector(packetBytes)"
vector 44 Scenario.normal_car[1].udp passedUpPk:vector(count) ETV
attr interpolationmode none
attr source packetSentToUpper
attr title "packets passed up, vector(count)"
vector 45 Scenario.normal_car[4].udp packetSent:vector(packetBytes) ETV
attr interpolationmode none
attr source packetSent
attr title "packets sent, vector(packetBytes)"
vector 46 Scenario.normal_car[4].wlan[0].mac rcvdPkFromHl:vector(packetBytes) ETV
attr interpolationmode none
attr source packetReceivedFromUpper
attr title "packets received from higher layer, vector(packetBytes)"
vector 47 Scenario.normal_car[4].wlan[0].mac.queue packetPushed:vector(packetBytes) ETV
attr interpolationmode none
attr title "packet pushed, vector(packetBytes)"
vector 48 Scenario.normal_car[4].wlan[0].mac.queue queueLength:vector ETV
attr interpolationmode sample-hold
attr source "count(packetPushed) - count(packetPopped) - count(packetRemoved) - count(packetDropped)"
attr title "queue length, vector"
vector 49 Scenario.normal_car[4].wlan[0].mac.queue packetPopped:vector(packetBytes) ETV
attr interpolationmode none
attr title "packet popped, vector(packetBytes)"
vector 50 Scenario.normal_car[4].wlan[0].mac.queue queueingTime:vector ETV
attr interpolationmode none
attr source queueingTime(packetPopped)
attr title "queueing times, vector"
attr unit s
vector 51 Scenario.normal_car[4].wlan[0].mac sentDownPk:vector(packetBytes) ETV
attr interpolationmode none
attr source packetSentToLower
attr title "packets sent to lower layer, vector(packetBytes)"
vector 52 Scenario.normal_car[6].wlan[0].mac rcvdPkFromLl:vector(packetBytes) ETV
attr interpolationmode none
attr source packetReceivedFromLower
attr title "packets received from lower layer, vector(packetBytes)"
vector 53 Scenario.normal_car[6].wlan[0].mac passedUpPk:vector(packetBytes) ETV
attr interpolationmode none
attr source packetSentToUpper
attr title "packets passed to higher layer, vector(packetBytes)"
vector 54 Scenario.normal_car[6].udp packetReceived:vector(packetBytes) ETV
attr interpolationmode none
attr source packetReceived
attr title "packets received, vector(packetBytes)"
vector 55 Scenario.normal_car[6].udp passedUpPk:vector(count) ETV
attr interpolationmode none
attr source packetSentToUpper
attr title "packets passed up, vector(count)"
vector 56 Scenario.attacker_car[2].wlan[0].mac rcvdPkFromLl:vector(packetBytes) ETV
attr interpolationmode none
attr source packetReceivedFromLower
attr title "packets received from lower layer, vector(packetBytes)"
vector 57 Scenario.attacker_car[2].wlan[0].mac passedUpPk:vector(packetBytes) ETV
attr interpolationmode none
attr source packetSentToUpper
attr title "packets passed to higher layer, vector(packetBytes)"
vector 58 Scenario.attacker_car[2].udp packetReceived:vector(packetBytes) ETV
attr interpolationmode none
attr source packetReceived
attr title "packets received, vector(packetBytes)"
vector 59 Scenario.attacker_car[2].udp passedUpPk:vector(count) ETV
attr interpolationmode none
attr source packetSentToUpper
attr title "packets passed up, vector(count)"
vector 60 Scenario.normal_car[1].udp packetSent:vector(packetBytes) ETV
attr interpolationmode none
attr source packetSent
attr title "packets sent, vector(packetBytes)"
vector 61 Scenario.normal_car[1].wlan[0].mac rcvdPkFromHl:vector(packetBytes) ETV
attr interpolationmode none
attr source packetReceivedFromUpper
attr title "packets received from higher layer, vector(packetBytes)"
vector 62 Scenario.normal_car[1].wlan[0].mac.queue packetPushed:vector(packetBytes) ETV
attr interpolationmode none
attr title "packet pushed, vector(packetBytes)"
vector 63 Scenario.normal_car[1].wlan[0].mac.queue queueLength:vector ETV
attr interpolationmode sample-hold
attr source "count(packetPushed) - count(packetPopped) - count(packetRemoved) - count(packetDropped)"
attr title "queue length, vector"
vector 64 Scenario.normal_car[1].wlan[0].mac.queue packetPopped:vector(packetBytes) ETV
attr interpolationmode none
attr title "packet popped, vector(packetBytes)"
vector 65 Scenario.normal_car[1].wlan[0].mac.queue queueingTime:vector ETV
attr interpolationmode none
attr source queueingTime(packetPopped)
attr title "queueing times, vector"
attr unit s
vector 66 Scenario.normal_car[1].wlan[0].mac sentDownPk:vector(packetBytes) ETV
attr interpolationmode none
attr source packetSentToLower
attr title "packets sent to lower layer, vector(packetBytes)"
vector 67 Scenario.normal_car[6].udp packetSent:vector(packetBytes) ETV
attr interpolationmode none
attr source packetSent
attr title "packets sent, vector(packetBytes)"
vector 68 Scenario.normal_car[6].wlan[0].mac rcvdPkFromHl:vector(packetBytes) ETV
attr interpolationmode none
attr source packetReceivedFromUpper
attr title "packets received from higher layer, vector(packetBytes)"
vector 69 Scenario.normal_car[6].wlan[0].mac.queue packetPushed:vector(packetBytes) ETV
attr interpolationmode none
attr title "packet pushed, vector(packetBytes)"
vector 70 Scenario.normal_car[6].wlan[0].mac.queue queueLength:vector ETV
attr interpolationmode sample-hold
attr source "count(packetPushed) - count(packetPopped) - count(packetRemoved) - count(packetDropped)"
attr title "queue length, vector"
vector 71 Scenario.normal_car[6].wlan[0].mac.queue packetPopped:vector(packetBytes) ETV
attr interpolationmode none
attr title "packet popped, vector(packetBytes)"
vector 72 Scenario.normal_car[6].wlan[0].mac.queue queueingTime:vector ETV
attr interpolationmode none
attr source queueingTime(packetPopped)
attr title "queueing times, vector"
attr unit s
vector 73 Scenario.normal_car[6].wlan[0].mac sentDownPk:vector(packetBytes) ETV
attr interpolationmode none
attr source packetSentToLower
attr title "packets sent to lower layer, vector(packetBytes)"
vector 74 Scenario.normal_car[8].wlan[0].mac rcvdPkFromLl:vector(packetBytes) ETV
attr interpolationmode none
attr source packetReceivedFromLower
attr title "packets received from lower layer, vector(packetBytes)"
vector 75 Scenario.normal_car[8].wlan[0].mac passedUpPk:vector(packetBytes) ETV
attr interpolationmode none
attr source packetSentToUpper
attr title "packets passed to higher layer, vector(packetBytes)"
vector 76 Scenario.normal_car[8].udp packetReceived:vector(packetBytes) ETV
attr interpolationmode none
attr source packetReceived
attr title "packets received, vector(packetBytes)"
vector 77 Scenario.normal_car[8].udp passedUpPk:vector(count) ETV
attr interpolationmode none
attr source packetSentToUpper
attr title "packets passed up, vector(count)"
vector 78 Scenario.normal_car[10].wlan[0].radio radioMode:vector ETV
attr interpolationmode sample-hold
attr source radioModeChanged
attr title "Radio mode, vector"
vector 79 Scenario.normal_car[10].wlan[0].radio receptionState:vector ETV
attr interpolationmode sample-hold
attr source receptionStateChanged
attr title "Radio reception state, vector"
vector 80 Scenario.normal_car[10].wlan[0].radio transmissionState:vector ETV
attr interpolationmode sample-hold
attr source transmissionStateChanged
attr title "Radio transmission state, vector"
vector 81 Scenario.normal_car[11].wlan[0].radio radioMode:vector ETV
attr interpolationmode sample-hold
attr source radioModeChanged
attr title "Radio mode, vector"
vector 82 Scenario.normal_car[11].wlan[0].radio receptionState:vector ETV
attr interpolationmode sample-hold
attr source receptionStateChanged
attr title "Radio reception state, vector"
vector 83 Scenario.normal_car[11].wlan[0].radio transmissionState:vector ETV
attr interpolationmode sample-hold
attr source transmissionStateChanged
attr title "Radio transmission state, vector"
vector 84 Scenario.normal_car[10].wlan[0].mac rcvdPkFromLl:vector(packetBytes) ETV
attr interpolationmode none
attr source packetReceivedFromLower
attr title "packets received from lower layer, vector(packetBytes)"
vector 85 Scenario.normal_car[10].wlan[0].mac passedUpPk:vector(packetBytes) ETV
attr interpolationmode none
attr source packetSentToUpper
attr title "packets passed to higher layer, vector(packetBytes)"
vector 86 Scenario.normal_car[10].udp packetReceived:vector(packetBytes) ETV
attr interpolationmode none
attr source packetReceived
attr title "packets received, vector(packetBytes)"
vector 87 Scenario.normal_car[10].udp passedUpPk:vector(count) ETV
attr interpolationmode none
attr source packetSentToUpper
attr title "packets passed up, vector(count)"
vector 88 Scenario.normal_car[1].app[0] packetSent:vector(packetBytes) ETV
attr interpolationmode none
attr source packetSent
attr title "packets sent, vector(packetBytes)"
vector 89 Scenario.normal_car[8].udp packetSent:vector(packetBytes) ETV
attr interpolationmode none
attr source packetSent
attr title "packets sent, vector(packetBytes)"
vector 90 Scenario.normal_car[8].wlan[0].mac rcvdPkFromHl:vector(packetBytes) ETV
attr interpolationmode none
attr source packetReceivedFromUpper
attr title "packets received from higher layer, vector(packetBytes)"
vector 91 Scenario.normal_car[8].wlan[0].mac.queue packetPushed:vector(packetBytes) ETV
attr interpolationmode none
attr title "packet pushed, vector(packetBytes)"
vector 92 Scenario.normal_car[8].wlan[0].mac.queue queueLength:vector ETV
attr interpolationmode sample-hold
attr source "count(packetPushed) - count(packetPopped) - count(packetRemoved) - count(packetDropped)"
attr title "queue length, vector"
vector 93 Scenario.normal_car[8].wlan[0].mac.queue packetPopped:vector(packetBytes) ETV
attr interpolationmode none
attr title "packet popped, vector(packetBytes)"
vector 94 Scenario.normal_car[8].wlan[0].mac.queue queueingTime:vector ETV
attr interpolationmode none
attr source queueingTime(packetPopped)
attr title "queueing times, vector"
attr unit s
vector 95 Scenario.normal_car[8].wlan[0].mac sentDownPk:vector(packetBytes) ETV
attr interpolationmode none
attr source packetSentToLower
attr title "packets sent to lower layer, vector(packetBytes)"
vector 96 Scenario.normal_car[8].wlan[0].mac packetDropNotAddressedToUs:vector(packetBytes) ETV
attr interpolationmode none
attr source packetDropReasonIsNotAddressedToUs(packetDropped)
attr title "packet drop: not addressed to us, vector(packetBytes)"
vector 97 Scenario.normal_car[6].wlan[0].mac packetDropNotAddressedToUs:vector(packetBytes) ETV
attr interpolationmode none
attr source packetDropReasonIsNotAddressedToUs(packetDropped)
attr title "packet drop: not addressed to us, vector(packetBytes)"
vector 98 Scenario.normal_car[4].wlan[0].mac packetDropNotAddressedToUs:vector(packetBytes) ETV
attr interpolationmode none
attr source packetDropReasonIsNotAddressedToUs(packetDropped)
attr title "packet drop: not addressed to us, vector(packetBytes)"
vector 99 Scenario.normal_car[1].wlan[0].mac packetDropNotAddressedToUs:vector(packetBytes) ETV
attr interpolationmode none
attr source packetDropReasonIsNotAddressedToUs(packetDropped)
attr title "packet drop: not addressed to us, vector(packetBytes)"
vector 100 Scenario.normal_car[6].app[0] packetReceived:vector(packetBytes) ETV
attr interpolationmode none
attr source packetReceived
attr title "packets received, vector(packetBytes)"
vector 101 Scenario.normal_car[6].app[0] throughput:vector ETV
attr source throughput(packetReceived)
attr title "throughput, vector"
attr unit bps
vector 102 Scenario.normal_car[6].app[0] endToEndDelay:vector ETV
attr interpolationmode none
attr source dataAge(packetReceived)
attr title "end-to-end delay, vector"
attr unit s
vector 103 Scenario.normal_car[6].app[0] rcvdPkSeqNo:vector ETV
attr interpolationmode none
attr source appPkSeqNo(packetReceived)
attr title "received packet sequence number, vector"
vector 104 Scenario.attacker_car[2].wlan[0].mac packetDropNotAddressedToUs:vector(packetBytes) ETV
attr interpolationmode none
attr source packetDropReasonIsNotAddressedToUs(packetDropped)
attr title "packet drop: not addressed to us, vector(packetBytes)"
vector 105 Scenario.normal_car[12].wlan[0].radio radioMode:vector ETV
attr interpolationmode sample-hold
attr source radioModeChanged
attr title "Radio mode, vector"
vector 106 Scenario.normal_car[12].wlan[0].radio receptionState:vector ETV
attr interpolationmode sample-hold
attr source receptionStateChanged
attr title "Radio reception state, vector"
vector 107 Scenario.normal_car[12].wlan[0].radio transmissionState:vector ETV
attr interpolationmode sample-hold
attr source transmissionStateChanged
attr title "Radio transmission state, vector"
vector 108 Scenario.normal_car[13].wlan[0].radio radioMode:vector ETV
attr interpolationmode sample-hold
attr source radioModeChanged
attr title "Radio mode, vector"
vector 109 Scenario.normal_car[13].wlan[0].radio receptionState:vector ETV
attr interpolationmode sample-hold
attr source receptionStateChanged
attr title "Radio reception state, vector"
vector 110 Scenario.normal_car[13].wlan[0].radio transmissionState:vector ETV
attr interpolationmode sample-hold
attr source transmissionStateChanged
attr title "Radio transmission state, vector"
vector 111 Scenario.normal_car[13].wlan[0].mac rcvdPkFromLl:vector(packetBytes) ETV
attr interpolationmode none
attr source packetReceivedFromLower
attr title "packets received from lower layer, vector(packetBytes)"
vector 112 Scenario.normal_car[13].wlan[0].mac passedUpPk:vector(packetBytes) ETV
attr interpolationmode none
attr source packetSentToUpper
attr title "packets passed to higher layer, vector(packetBytes)"
vector 113 Scenario.normal_car[13].udp packetReceived:vector(packetBytes) ETV
attr interpolationmode none
attr source packetReceived
attr title "packets received, vector(packetBytes)"
vector 114 Scenario.normal_car[13].udp passedUpPk:vector(count) ETV
attr interpolationmode none
attr source packetSentToUpper
attr title "packets passed up, vector(count)"
vector 115 Scenario.normal_car[10].udp packetSent:vector(packetBytes) ETV
attr interpolationmode none
attr source packetSent
attr title "packets sent, vector(packetBytes)"
vector 116 Scenario.normal_car[10].wlan[0].mac rcvdPkFromHl:vector(packetBytes) ETV
attr interpolationmode none
attr source packetReceivedFromUpper
attr title "packets received from higher layer, vector(packetBytes)"
vector 117 Scenario.normal_car[10].wlan[0].mac.queue packetPushed:vector(packetBytes) ETV
attr interpolationmode none
attr title "packet pushed, vector(packetBytes)"
vector 118 Scenario.normal_car[10].wlan[0].mac.queue queueLength:vector ETV
attr interpolationmode sample-hold
attr source "count(packetPushed) - count(packetPopped) - count(packetRemoved) - count(packetDropped)"
attr title "queue length, vector"
vector 119 Scenario.normal_car[10].wlan[0].mac.queue packetPopped:vector(packetBytes) ETV
attr interpolationmode none
attr title "packet popped, vector(packetBytes)"
vector 120 Scenario.normal_car[10].wlan[0].mac.queue queueingTime:vector ETV
attr interpolationmode none
attr source queueingTime(packetPopped)
attr title "queueing times, vector"
attr unit s
vector 121 Scenario.normal_car[10].wlan[0].mac sentDownPk:vector(packetBytes) ETV
attr interpolationmode none
attr source packetSentToLower
attr title "packets sent to lower layer, vector(packetBytes)"
vector 122 Scenario.normal_car[14].wlan[0].radio radioMode:vector ETV
attr interpolationmode sample-hold
attr source radioModeChanged
attr title "Radio mode, vector"
vector 123 Scenario.normal_car[14].wlan[0].radio receptionState:vector ETV
attr interpolationmode sample-hold
attr source receptionStateChanged
attr title "Radio reception state, vector"
vector 124 Scenario.normal_car[14].wlan[0].radio transmissionState:vector ETV
attr interpolationmode sample-hold
attr source transmissionStateChanged
attr title "Radio transmission state, vector"
vector 125 Scenario.normal_car[14].wlan[0].mac rcvdPkFromLl:vector(packetBytes) ETV
attr interpolationmode none
attr source packetReceivedFromLower
attr title "packets received from lower layer, vector(packetBytes)"
vector 126 Scenario.normal_car[14].wlan[0].mac passedUpPk:vector(packetBytes) ETV
attr interpolationmode none
attr source packetSentToUpper
attr title "packets passed to higher layer, vector(packetBytes)"
vector 127 Scenario.normal_car[14].udp packetReceived:vector(packetBytes) ETV
attr interpolationmode none
attr source packetReceived
attr title "packets received, vector(packetBytes)"
vector 128 Scenario.normal_car[14].udp passedUpPk:vector(count) ETV
attr interpolationmode none
attr source packetSentToUpper
attr title "packets passed up, vector(count)"
vector 129 Scenario.normal_car[13].udp packetSent:vector(packetBytes) ETV
attr interpolationmode none
attr source packetSent
attr title "packets sent, vector(packetBytes)"
vector 130 Scenario.normal_car[13].wlan[0].mac rcvdPkFromHl:vector(packetBytes) ETV
attr interpolationmode none
attr source packetReceivedFromUpper
attr title "packets received from higher layer, vector(packetBytes)"
vector 131 Scenario.normal_car[13].wlan[0].mac.queue packetPushed:vector(packetBytes) ETV
attr interpolationmode none
attr title "packet pushed, vector(packetBytes)"
vector 132 Scenario.normal_car[13].wlan[0].mac.queue queueLength:vector ETV
attr interpolationmode sample-hold
attr source "count(packetPushed) - count(packetPopped) - count(packetRemoved) - count(packetDropped)"
attr title "queue length, vector"
vector 133 Scenario.normal_car[13].wlan[0].mac.queue packetPopped:vector(packetBytes) ETV
attr interpolationmode none
attr title "packet popped, vector(packetBytes)"
vector 134 Scenario.normal_car[13].wlan[0].mac.queue queueingTime:vector ETV
attr interpolationmode none
attr source queueingTime(packetPopped)
attr title "queueing times, vector"
attr unit s
vector 135 Scenario.normal_car[13].wlan[0].mac sentDownPk:vector(packetBytes) ETV
attr interpolationmode none
attr source packetSentToLower
attr title "packets sent to lower layer, vector(packetBytes)"
vector 136 Scenario.normal_car[0].wlan[0].mac rcvdPkFromLl:vector(packetBytes) ETV
attr interpolationmode none
attr source packetReceivedFromLower
attr title "packets received from lower layer, vector(packetBytes)"
vector 137 Scenario.normal_car[0].wlan[0].mac passedUpPk:vector(packetBytes) ETV
attr interpolationmode none
attr source packetSentToUpper
attr title "packets passed to higher layer, vector(packetBytes)"
vector 138 Scenario.normal_car[0].udp packetReceived:vector(packetBytes) ETV
attr interpolationmode none
attr source packetReceived
attr title "packets received, vector(packetBytes)"
vector 139 Scenario.normal_car[0].udp passedUpPk:vector(count) ETV
attr interpolationmode none
attr source packetSentToUpper
attr title "packets passed up, vector(count)"
vector 140 Scenario.normal_car[0].udp packetSent:vector(packetBytes) ETV
attr interpolationmode none
attr source packetSent
attr title "packets sent, vector(packetBytes)"
vector 141 Scenario.normal_car[0].wlan[0].mac rcvdPkFromHl:vector(packetBytes) ETV
attr interpolationmode none
attr source packetReceivedFromUpper
attr title "packets received from higher layer, vector(packetBytes)"
vector 142 Scenario.normal_car[0].wlan[0].mac.queue packetPushed:vector(packetBytes) ETV
attr interpolationmode none
attr title "packet pushed, vector(packetBytes)"
vector 143 Scenario.normal_car[0].wlan[0].mac.queue queueLength:vector ETV
attr interpolationmode sample-hold
attr source "count(packetPushed) - count(packetPopped) - count(packetRemoved) - count(packetDropped)"
attr title "queue length, vector"
vector 144 Scenario.normal_car[0].wlan[0].mac.queue packetPopped:vector(packetBytes) ETV
attr interpolationmode none
attr title "packet popped, vector(packetBytes)"
vector 145 Scenario.normal_car[0].wlan[0].mac.queue queueingTime:vector ETV
attr interpolationmode none
attr source queueingTime(packetPopped)
attr title "queueing times, vector"
attr unit s
vector 146 Scenario.normal_car[0].wlan[0].mac sentDownPk:vector(packetBytes) ETV
attr interpolationmode none
attr source packetSentToLower
attr title "packets sent to lower layer, vector(packetBytes)"
vector 147 Scenario.normal_car[3].wlan[0].mac rcvdPkFromLl:vector(packetBytes) ETV
attr interpolationmode none
attr source packetReceivedFromLower
attr title "packets received from lower layer, vector(packetBytes)"
vector 148 Scenario.normal_car[3].wlan[0].mac passedUpPk:vector(packetBytes) ETV
attr interpolationmode none
attr source packetSentToUpper
attr title "packets passed to higher layer, vector(packetBytes)"
vector 149 Scenario.normal_car[3].udp packetReceived:vector(packetBytes) ETV
attr interpolationmode none
attr source packetReceived
attr title "packets received, vector(packetBytes)"
vector 150 Scenario.normal_car[3].udp passedUpPk:vector(count) ETV
attr interpolationmode none
attr source packetSentToUpper
attr title "packets passed up, vector(count)"
vector 151 Scenario.normal_car[3].udp packetSent:vector(packetBytes) ETV
attr interpolationmode none
attr source packetSent
attr title "packets sent, vector(packetBytes)"
vector 152 Scenario.normal_car[3].wlan[0].mac rcvdPkFromHl:vector(packetBytes) ETV
attr interpolationmode none
attr source packetReceivedFromUpper
attr title "packets received from higher layer, vector(packetBytes)"
vector 153 Scenario.normal_car[3].wlan[0].mac.queue packetPushed:vector(packetBytes) ETV
attr interpolationmode none
attr title "packet pushed, vector(packetBytes)"
vector 154 Scenario.normal_car[3].wlan[0].mac.queue queueLength:vector ETV
attr interpolationmode sample-hold
attr source "count(packetPushed) - count(packetPopped) - count(packetRemoved) - count(packetDropped)"
attr title "queue length, vector"
vector 155 Scenario.normal_car[3].wlan[0].mac.queue packetPopped:vector(packetBytes) ETV
attr interpolationmode none
attr title "packet popped, vector(packetBytes)"
vector 156 Scenario.normal_car[3].wlan[0].mac.queue queueingTime:vector ETV
attr interpolationmode none
attr source queueingTime(packetPopped)
attr title "queueing times, vector"
attr unit s
vector 157 Scenario.normal_car[3].wlan[0].mac sentDownPk:vector(packetBytes) ETV
attr interpolationmode none
attr source packetSentToLower
attr title "packets sent to lower layer, vector(packetBytes)"
vector 158 Scenario.normal_car[5].wlan[0].mac rcvdPkFromLl:vector(packetBytes) ETV
attr interpolationmode none
attr source packetReceivedFromLower
attr title "packets received from lower layer, vector(packetBytes)"
vector 159 Scenario.normal_car[5].wlan[0].mac passedUpPk:vector(packetBytes) ETV
attr interpolationmode none
attr source packetSentToUpper
attr title "packets passed to higher layer, vector(packetBytes)"
vector 160 Scenario.normal_car[5].udp packetReceived:vector(packetBytes) ETV
attr interpolationmode none
attr source packetReceived
attr title "packets received, vector(packetBytes)"
vector 161 Scenario.normal_car[5].udp passedUpPk:vector(count) ETV
attr interpolationmode none
attr source packetSentToUpper
attr title "packets passed up, vector(count)"
vector 162 Scenario.normal_car[5].udp packetSent:vector(packetBytes) ETV
attr interpolationmode none
attr source packetSent
attr title "packets sent, vector(packetBytes)"
vector 163 Scenario.normal_car[5].wlan[0].mac rcvdPkFromHl:vector(packetBytes) ETV
attr interpolationmode none
attr source packetReceivedFromUpper
attr title "packets received from higher layer, vector(packetBytes)"
vector 164 Scenario.normal_car[5].wlan[0].mac.queue packetPushed:vector(packetBytes) ETV
attr interpolationmode none
attr title "packet pushed, vector(packetBytes)"
vector 165 Scenario.normal_car[5].wlan[0].mac.queue queueLength:vector ETV
attr interpolationmode sample-hold
attr source "count(packetPushed) - count(packetPopped) - count(packetRemoved) - count(packetDropped)"
attr title "queue length, vector"
vector 166 Scenario.normal_car[5].wlan[0].mac.queue packetPopped:vector(packetBytes) ETV
attr interpolationmode none
attr title "packet popped, vector(packetBytes)"
vector 167 Scenario.normal_car[5].wlan[0].mac.queue queueingTime:vector ETV
attr interpolationmode none
attr source queueingTime(packetPopped)
attr title "queueing times, vector"
attr unit s
vector 168 Scenario.normal_car[5].wlan[0].mac sentDownPk:vector(packetBytes) ETV
attr interpolationmode none
attr source packetSentToLower
attr title "packets sent to lower layer, vector(packetBytes)"
vector 169 Scenario.normal_car[7].wlan[0].mac rcvdPkFromLl:vector(packetBytes) ETV
attr interpolationmode none
attr source packetReceivedFromLower
attr title "packets received from lower layer, vector(packetBytes)"
vector 170 Scenario.normal_car[7].wlan[0].mac passedUpPk:vector(packetBytes) ETV
attr interpolationmode none
attr source packetSentToUpper
attr title "packets passed to higher layer, vector(packetBytes)"
vector 171 Scenario.normal_car[7].udp packetReceived:vector(packetBytes) ETV
attr interpolationmode none
attr source packetReceived
attr title "packets received, vector(packetBytes)"
vector 172 Scenario.normal_car[7].udp passedUpPk:vector(count) ETV
attr interpolationmode none
attr source packetSentToUpper
attr title "packets passed up, vector(count)"
vector 173 Scenario.normal_car[7].udp packetSent:vector(packetBytes) ETV
attr interpolationmode none
attr source packetSent
attr title "packets sent, vector(packetBytes)"
vector 174 Scenario.normal_car[7].wlan[0].mac rcvdPkFromHl:vector(packetBytes) ETV
attr interpolationmode none
attr source packetReceivedFromUpper
attr title "packets received from higher layer, vector(packetBytes)"
vector 175 Scenario.normal_car[7].wlan[0].mac.queue packetPushed:vector(packetBytes) ETV
attr interpolationmode none
attr title "packet pushed, vector(packetBytes)"
vector 176 Scenario.normal_car[7].wlan[0].mac.queue queueLength:vector ETV
attr interpolationmode sample-hold
attr source "count(packetPushed) - count(packetPopped) - count(packetRemoved) - count(packetDropped)"
attr title "queue length, vector"
vector 177 Scenario.normal_car[7].wlan[0].mac.queue packetPopped:vector(packetBytes) ETV
attr interpolationmode none
attr title "packet popped, vector(packetBytes)"
vector 178 Scenario.normal_car[7].wlan[0].mac.queue queueingTime:vector ETV
attr interpolationmode none
attr source queueingTime(packetPopped)
attr title "queueing times, vector"
attr unit s
vector 179 Scenario.normal_car[7].wlan[0].mac sentDownPk:vector(packetBytes) ETV
attr interpolationmode none
attr source packetSentToLower
attr title "packets sent to lower layer, vector(packetBytes)"
vector 180 Scenario.normal_car[9].wlan[0].mac rcvdPkFromLl:vector(packetBytes) ETV
attr interpolationmode none
attr source packetReceivedFromLower
attr title "packets received from lower layer, vector(packetBytes)"
vector 181 Scenario.normal_car[9].wlan[0].mac passedUpPk:vector(packetBytes) ETV
attr interpolationmode none
attr source packetSentToUpper
attr title "packets passed to higher layer, vector(packetBytes)"
vector 182 Scenario.normal_car[9].udp packetReceived:vector(packetBytes) ETV
attr interpolationmode none
attr source packetReceived
attr title "packets received, vector(packetBytes)"
vector 183 Scenario.normal_car[9].udp passedUpPk:vector(count) ETV
attr interpolationmode none
attr source packetSentToUpper
attr title "packets passed up, vector(count)"
vector 184 Scenario.normal_car[9].udp packetSent:vector(packetBytes) ETV
attr interpolationmode none
attr source packetSent
attr title "packets sent, vector(packetBytes)"
vector 185 Scenario.normal_car[9].wlan[0].mac rcvdPkFromHl:vector(packetBytes) ETV
attr interpolationmode none
attr source packetReceivedFromUpper
attr title "packets received from higher layer, vector(packetBytes)"
vector 186 Scenario.normal_car[9].wlan[0].mac.queue packetPushed:vector(packetBytes) ETV
attr interpolationmode none
attr title "packet pushed, vector(packetBytes)"
vector 187 Scenario.normal_car[9].wlan[0].mac.queue queueLength:vector ETV
attr interpolationmode sample-hold
attr source "count(packetPushed) - count(packetPopped) - count(packetRemoved) - count(packetDropped)"
attr title "queue length, vector"
vector 188 Scenario.normal_car[9].wlan[0].mac.queue packetPopped:vector(packetBytes) ETV
attr interpolationmode none
attr title "packet popped, vector(packetBytes)"
vector 189 Scenario.normal_car[9].wlan[0].mac.queue queueingTime:vector ETV
attr interpolationmode none
attr source queueingTime(packetPopped)
attr title "queueing times, vector"
attr unit s
vector 190 Scenario.normal_car[9].wlan[0].mac sentDownPk:vector(packetBytes) ETV
attr interpolationmode none
attr source packetSentToLower
attr title "packets sent to lower layer, vector(packetBytes)"
vector 191 Scenario.normal_car[11].wlan[0].mac rcvdPkFromLl:vector(packetBytes) ETV
attr interpolationmode none
attr source packetReceivedFromLower
attr title "packets received from lower layer, vector(packetBytes)"
vector 192 Scenario.normal_car[11].wlan[0].mac passedUpPk:vector(packetBytes) ETV
attr interpolationmode none
attr source packetSentToUpper
attr title "packets passed to higher layer, vector(packetBytes)"
vector 193 Scenario.normal_car[11].udp packetReceived:vector(packetBytes) ETV
attr interpolationmode none
attr source packetReceived
attr title "packets received, vector(packetBytes)"
vector 194 Scenario.normal_car[11].udp passedUpPk:vector(count) ETV
attr interpolationmode none
attr source packetSentToUpper
attr title "packets passed up, vector(count)"
vector 195 Scenario.normal_car[11].udp packetSent:vector(packetBytes) ETV
attr interpolationmode none
attr source packetSent
attr title "packets sent, vector(packetBytes)"
vector 196 Scenario.normal_car[11].wlan[0].mac rcvdPkFromHl:vector(packetBytes) ETV
attr interpolationmode none
attr source packetReceivedFromUpper
attr title "packets received from higher layer, vector(packetBytes)"
vector 197 Scenario.normal_car[11].wlan[0].mac.queue packetPushed:vector(packetBytes) ETV
attr interpolationmode none
attr title "packet pushed, vector(packetBytes)"
vector 198 Scenario.normal_car[11].wlan[0].mac.queue queueLength:vector ETV
attr interpolationmode sample-hold
attr source "count(packetPushed) - count(packetPopped) - count(packetRemoved) - count(packetDropped)"
attr title "queue length, vector"
vector 199 Scenario.normal_car[11].wlan[0].mac.queue packetPopped:vector(packetBytes) ETV
attr interpolationmode none
attr title "packet popped, vector(packetBytes)"
vector 200 Scenario.normal_car[11].wlan[0].mac.queue queueingTime:vector ETV
attr interpolationmode none
attr source queueingTime(packetPopped)
attr title "queueing times, vector"
attr unit s
vector 201 Scenario.normal_car[11].wlan[0].mac sentDownPk:vector(packetBytes) ETV
attr interpolationmode none
attr source packetSentToLower
attr title "packets sent to lower layer, vector(packetBytes)"
vector 202 Scenario.normal_car[12].wlan[0].mac rcvdPkFromLl:vector(packetBytes) ETV
attr interpolationmode none
attr source packetReceivedFromLower
attr title "packets received from lower layer, vector(packetBytes)"
vector 203 Scenario.normal_car[12].wlan[0].mac passedUpPk:vector(packetBytes) ETV
attr interpolationmode none
attr source packetSentToUpper
attr title "packets passed to higher layer, vector(packetBytes)"
vector 204 Scenario.normal_car[12].udp packetReceived:vector(packetBytes) ETV
attr interpolationmode none
attr source packetReceived
attr title "packets received, vector(packetBytes)"
vector 205 Scenario.normal_car[12].udp passedUpPk:vector(count) ETV
attr interpolationmode none
attr source packetSentToUpper
attr title "packets passed up, vector(count)"
vector 206 Scenario.normal_car[12].udp packetSent:vector(packetBytes) ETV
attr interpolationmode none
attr source packetSent
attr title "packets sent, vector(packetBytes)"
vector 207 Scenario.normal_car[12].wlan[0].mac rcvdPkFromHl:vector(packetBytes) ETV
attr interpolationmode none
attr source packetReceivedFromUpper
attr title "packets received from higher layer, vector(packetBytes)"
vector 208 Scenario.normal_car[12].wlan[0].mac.queue packetPushed:vector(packetBytes) ETV
attr interpolationmode none
attr title "packet pushed, vector(packetBytes)"
vector 209 Scenario.normal_car[12].wlan[0].mac.queue queueLength:vector ETV
attr interpolationmode sample-hold
attr source "count(packetPushed) - count(packetPopped) - count(packetRemoved) - count(packetDropped)"
attr title "queue length, vector"
vector 210 Scenario.normal_car[12].wlan[0].mac.queue packetPopped:vector(packetBytes) ETV
attr interpolationmode none
attr title "packet popped, vector(packetBytes)"
vector 211 Scenario.normal_car[12].wlan[0].mac.queue queueingTime:vector ETV
attr interpolationmode none
attr source queueingTime(packetPopped)
attr title "queueing times, vector"
attr unit s
vector 212 Scenario.normal_car[12].wlan[0].mac sentDownPk:vector(packetBytes) ETV
attr interpolationmode none
attr source packetSentToLower
attr title "packets sent to lower layer, vector(packetBytes)"
vector 213 Scenario.normal_car[0].wlan[0].mac packetDropNotAddressedToUs:vector(packetBytes) ETV
attr interpolationmode none
attr source packetDropReasonIsNotAddressedToUs(packetDropped)
attr title "packet drop: not addressed to us, vector(packetBytes)"
vector 214 Scenario.normal_car[3].wlan[0].mac packetDropNotAddressedToUs:vector(packetBytes) ETV
attr interpolationmode none
attr source packetDropReasonIsNotAddressedToUs(packetDropped)
attr title "packet drop: not addressed to us, vector(packetBytes)"
vector 215 Scenario.normal_car[14].udp packetSent:vector(packetBytes) ETV
attr interpolationmode none
attr source packetSent
attr title "packets sent, vector(packetBytes)"
vector 216 Scenario.normal_car[14].wlan[0].mac rcvdPkFromHl:vector(packetBytes) ETV
attr interpolationmode none
attr source packetReceivedFromUpper
attr title "packets received from higher layer, vector(packetBytes)"
vector 217 Scenario.normal_car[14].wlan[0].mac.queue packetPushed:vector(packetBytes) ETV
attr interpolationmode none
attr title "packet pushed, vector(packetBytes)"
vector 218 Scenario.normal_car[14].wlan[0].mac.queue queueLength:vector ETV
attr interpolationmode sample-hold
attr source "count(packetPushed) - count(packetPopped) - count(packetRemoved) - count(packetDropped)"
attr title "queue length, vector"
vector 219 Scenario.normal_car[14].wlan[0].mac.queue packetPopped:vector(packetBytes) ETV
attr interpolationmode none
attr title "packet popped, vector(packetBytes)"
vector 220 Scenario.normal_car[14].wlan[0].mac.queue queueingTime:vector ETV
attr interpolationmode none
attr source queueingTime(packetPopped)
attr title "queueing times, vector"
attr unit s
vector 221 Scenario.normal_car[14].wlan[0].mac sentDownPk:vector(packetBytes) ETV
attr interpolationmode none
attr source packetSentToLower
attr title "packets sent to lower layer, vector(packetBytes)"
vector 222 Scenario.normal_car[5].wlan[0].mac packetDropNotAddressedToUs:vector(packetBytes) ETV
attr interpolationmode none
attr source packetDropReasonIsNotAddressedToUs(packetDropped)
attr title "packet drop: not addressed to us, vector(packetBytes)"
vector 223 Scenario.normal_car[7].wlan[0].mac packetDropNotAddressedToUs:vector(packetBytes) ETV
attr interpolationmode none
attr source packetDropReasonIsNotAddressedToUs(packetDropped)
attr title "packet drop: not addressed to us, vector(packetBytes)"
vector 224 Scenario.normal_car[9].wlan[0].mac packetDropNotAddressedToUs:vector(packetBytes) ETV
attr interpolationmode none
attr source packetDropReasonIsNotAddressedToUs(packetDropped)
attr title "packet drop: not addressed to us, vector(packetBytes)"
vector 225 Scenario.normal_car[11].wlan[0].mac packetDropNotAddressedToUs:vector(packetBytes) ETV
attr interpolationmode none
attr source packetDropReasonIsNotAddressedToUs(packetDropped)
attr title "packet drop: not addressed to us, vector(packetBytes)"
vector 226 Scenario.normal_car[12].wlan[0].mac packetDropNotAddressedToUs:vector(packetBytes) ETV
attr interpolationmode none
attr source packetDropReasonIsNotAddressedToUs(packetDropped)
attr title "packet drop: not addressed to us, vector(packetBytes)"
vector 227 Scenario.normal_car[0].app[0] throughput:vector ETV
attr source throughput(packetReceived)
attr title "throughput, vector"
attr unit bps
vector 228 Scenario.normal_car[1].app[0] throughput:vector ETV
attr source throughput(packetReceived)
attr title "throughput, vector"
attr unit bps
vector 229 Scenario.attacker_car[2].app[0] throughput:vector ETV
attr source throughput(packetReceived)
attr title "throughput, vector"
attr unit bps
vector 230 Scenario.normal_car[3].app[0] throughput:vector ETV
attr source throughput(packetReceived)
attr title "throughput, vector"
attr unit bps
vector 231 Scenario.normal_car[4].app[0] throughput:vector ETV
attr source throughput(packetReceived)
attr title "throughput, vector"
attr unit bps
vector 232 Scenario.normal_car[5].app[0] throughput:vector ETV
attr source throughput(packetReceived)
attr title "throughput, vector"
attr unit bps
vector 233 Scenario.normal_car[7].app[0] throughput:vector ETV
attr source throughput(packetReceived)
attr title "throughput, vector"
attr unit bps
vector 234 Scenario.normal_car[8].app[0] throughput:vector ETV
attr source throughput(packetReceived)
attr title "throughput, vector"
attr unit bps
vector 235 Scenario.normal_car[9].app[0] throughput:vector ETV
attr source throughput(packetReceived)
attr title "throughput, vector"
attr unit bps
vector 236 Scenario.normal_car[10].app[0] throughput:vector ETV
attr source throughput(packetReceived)
attr title "throughput, vector"
attr unit bps
vector 237 Scenario.normal_car[11].app[0] throughput:vector ETV
attr source throughput(packetReceived)
attr title "throughput, vector"
attr unit bps
vector 238 Scenario.normal_car[12].app[0] throughput:vector ETV
attr source throughput(packetReceived)
attr title "throughput, vector"
attr unit bps
vector 239 Scenario.normal_car[13].app[0] throughput:vector ETV
attr source throughput(packetReceived)
attr title "throughput, vector"
attr unit bps
vector 240 Scenario.normal_car[14].app[0] throughput:vector ETV
attr source throughput(packetReceived)
attr title "throughput, vector"
attr unit bps
0	49658 30 2 2 0.1 0.1 3 0 4 4 16
1	49688 22114 2 93607 0.1 53.381625963674 854 1 3 1712 4228
2	71802 5962 2 93642 0.1 53.385196065101 231 1 2 346 576
3	77764 30 2 2 0.1 0.1 3 0 4 4 16
4	77794 21741 2 100497 0.1 60.352727299005 847 1 3 1693 4219
5	99535 7997 2 100162 0.1 60.004348 339 1 2 508 846
6	107532 33 52 52 3.8 3.8 3 0 4 4 16
7	107565 28417 52 100544 3.8 60.357729749816 1107 1 3 2221 5509
8	135982 11595 52 100496 3.8 60.352727130956 453 1 2 679 1131
9	147577 33 58 58 3.9 3.9 3 0 4 4 16
10	147610 28812 58 93643 3.9 53.385196275237 1072 1 3 2150 5308
11	176422 6352 58 93596 3.9 53.381625753538 237 1 2 355 591
12	182774 39 113 113 7.5 7.5 3 0 4 4 16
13	182813 32994 113 100586 7.5 60.361621711249 1235 1 3 2471 6147
14	215807 11377 113 100538 7.5 60.357729539012 427 1 2 640 1066
15	227184 39 119 119 7.6 7.6 3 0 4 4 16
16	227223 28843 119 93597 7.6 53.381625884696 1073 1 3 2154 5338
17	256066 6471 119 93505 7.6 53.376867560879 241 1 2 361 601
18	262537 42 182 182 11.2 11.2 3 0 4 4 16
19	262579 31318 182 100624 11.2 60.364698744705 1172 1 3 2345 5823
20	293897 9716 182 100580 11.2 60.3616215511 365 1 2 547 911
21	303613 42 189 189 11.4 11.4 3 0 4 4 16
22	303655 26210 189 93512 11.4 53.37686768125 975 1 3 1956 4836
23	329865 6684 189 93544 11.4 53.379383628807 249 1 2 373 621
24	336549 42 257 257 14.9 14.9 3 0 4 4 16
25	336591 28965 257 100666 14.9 60.365266789287 1083 1 3 2165 5371
26	365556 8872 257 100623 14.9 60.364698596255 333 1 2 499 831
27	374428 42 266 266 15.1 15.1 3 0 4 4 16
28	374470 24494 266 93545 15.1 53.379383676596 911 1 3 1824 4522
29	398964 5972 266 93339 15.1 53.375329390632 223 1 2 334 556
30	404936 5274 336 100478 18.102744067512 60.352379130956 191 28 32 6088 194144
31	410210 6310 338 100480 18.102744067512 60.352379130956 226 48 1052 44720 37039904
32	416520 6310 338 100480 18.102744067512 60.352379130956 226 48 1052 44720 37039904
33	422830 12036 338 100480 18.102744067512 60.352379130956 452 0 1 226 226
34	434866 6310 338 100480 18.102744067512 60.352379130956 226 48 1052 44720 37039904
35	441176 6031 338 100480 18.102744067512 60.352379130956 226 0 0.003200965743 0.003200965743 1.024618168786e-05
36	447207 6310 338 100480 18.102744067512 60.352379130956 226 71 1075 49918 39216578
37	453517 16778 351 100587 18.103092239773 60.361621711249 602 63 1075 89038 53970058
38	470295 15829 351 100587 18.103092239773 60.361621711249 569 40 1052 58548 33550736
39	486124 14940 353 100589 18.103092239773 60.361621711249 539 20 36 17212 549936
40	501064 15371 353 100589 18.103092239773 60.361621711249 539 1 539 145530 52342290
41	516435 11630 356 100498 18.103092240989 60.352727299005 417 71 1075 73219 50637449
42	528065 10249 356 100498 18.103092240989 60.352727299005 370 48 52 19204 996880
43	538314 10249 358 100500 18.103092240989 60.352727299005 370 28 32 11804 376720
44	548563 10511 358 100500 18.103092240989 60.352727299005 370 1 370 68635 16952845
45	559074 5064 368 100520 18.106056462855 60.357381539012 183 28 32 5844 186672
46	564138 5953 370 100522 18.106056462855 60.357381539012 213 48 1052 40060 32590352
47	570091 5953 370 100522 18.106056462855 60.357381539012 213 48 1052 40060 32590352
48	576044 11364 370 100522 18.106056462855 60.357381539012 426 0 1 213 213
49	587408 5953 370 100522 18.106056462855 60.357381539012 213 48 1052 40060 32590352
50	593361 5682 370 100522 18.106056462855 60.357381539012 213 0 0 0 0
51	599043 5953 370 100522 18.106056462855 60.357381539012 213 71 1075 44959 34545789
52	604996 15767 383 100625 18.106404633113 60.364698744705 566 71 1075 79402 45726774
53	620763 15487 383 100625 18.106404633113 60.364698744705 556 48 1052 64900 41246256
54	636250 15487 385 100627 18.106404633113 60.364698744705 556 28 1032 53780 38872656
55	651737 15863 385 100627 18.106404633113 60.364698744705 556 1 556 154846 57447866
56	667600 14825 388 100545 18.106404635116 60.357729749816 530 71 1075 118706 93825146
57	682425 13207 388 100545 18.106404635116 60.357729749816 475 48 1052 57692 37715920
58	695632 12171 390 100547 18.106404635116 60.357729749816 440 28 44 14080 450880
59	707803 12503 390 100547 18.106404635116 60.357729749816 440 1 440 97020 28491540
60	720306 4214 400 100144 18.106668187814 60 169 28 1032 46420 43798096
61	724520 4291 402 100146 18.106668187814 60 169 48 1052 49800 45722496
62	728811 4291 402 100146 18.106668187814 60 169 48 1052 49800 45722496
63	733102 8080 402 100146 18.106668187814 60 338 0 2 173 177
64	741182 4291 402 100146 18.106668187814 60 169 48 1052 49800 45722496
65	745473 4118 402 100146 18.106668187814 60 169 0 0.100333724314 0.370625144285 0.029378753257772
66	749591 4291 402 100146 18.106668187814 60 169 71 1075 53687 48102697
67	753882 5033 527 100562 18.360655903914 60.3612735511 182 20 36 5776 183616
68	758915 5033 529 100564 18.360655903914 60.3612735511 182 40 56 9416 487456
69	763948 5033 529 100564 18.360655903914 60.3612735511 182 40 56 9416 487456
70	768981 9702 529 100564 18.360655903914 60.3612735511 364 0 1 182 182
71	778683 5033 529 100564 18.360655903914 60.3612735511 182 40 56 9416 487456
72	783716 4851 529 100564 18.360655903914 60.3612735511 182 0 0 0 0
73	788567 5033 529 100564 18.360655903914 60.3612735511 182 63 79 13602 1016870
74	793600 14462 542 100667 18.361004040237 60.365266789287 521 63 1075 41019 5222609
75	808062 14097 542 100667 18.361004040237 60.365266789287 508 40 56 26404 1372592
76	822159 14097 544 100669 18.361004040237 60.365266789287 508 20 36 16244 519632
77	836256 14497 544 100669 18.361004040237 60.365266789287 508 1 508 129286 43827954
78	850753 42 697 697 18.7 18.7 3 0 4 4 16
79	850795 24472 697 100629 18.7 60.36469875419 914 1 3 1831 4545
80	875267 8046 697 100665 18.7 60.365266631352 301 1 2 451 751
81	883313 42 704 704 18.8 18.8 3 0 4 4 16
82	883355 21682 704 93560 18.8 53.379383766833 806 1 3 1613 4009
83	905037 5928 704 93393 18.8 53.375742831756 221 1 2 331 551
84	910965 12226 843 100630 18.859613250525 60.36469875419 440 71 75 32992 2473832
85	923191 12226 843 100630 18.859613250525 60.36469875419 440 48 52 22872 1188960
86	935417 12226 845 100632 18.859613250525 60.36469875419 440 28 32 14072 450080
87	947643 12558 845 100632 18.859613250525 60.36469875419 440 1 440 97020 28491540
88	960201 690 1481 100141 20 60 41 1024 1024 41984 42991616
89	960891 4595 1705 100605 20.114150209922 60.364350596255 166 32 32 5312 169984
90	965486 4595 1707 100607 20.114150209922 60.364350596255 166 52 52 8632 448864
91	970081 4595 1707 100607 20.114150209922 60.364350596255 166 52 52 8632 448864
92	974676 8858 1707 100607 20.114150209922 60.364350596255 332 0 1 166 166
93	983534 4595 1707 100607 20.114150209922 60.364350596255 166 52 52 8632 448864
94	988129 4429 1707 100607 20.114150209922 60.364350596255 166 0 0 0 0
95	992558 4595 1707 100607 20.114150209922 60.364350596255 166 75 75 12450 933750
96	997153 365 1875 56085 20.332988237004 41.351606870758 13 71 1075 2931 2366701
97	997518 280 1904 55998 20.337316196685 41.347258736646 10 71 1075 1714 1200994
98	997798 949 1945 56074 20.341652925273 41.351606731719 33 71 1075 17403 17425113
99	998747 1381 1999 100197 20.350349215176 60.00869633259 47 71 1075 45505 48561455
100	1000128 1105 2069 100234 20.354697403185 60.013044537254 36 1024 1024 36864 37748736
101	1001233 9955 2069 100695 0.1 60.5 605 0 81920 2949120 241591910400
102	1011188 1461 2069 100234 20.354697403185 60.013044537254 36 0.008696378265 0.360095235283 1.492519770079 0.3847024618951
103	1012649 1023 2069 100234 20.354697403185 60.013044537254 36 0 40 742 20870
104	1013672 1673 2071 100236 20.35469740571 60.013044588311 55 71 1075 50089 53204119
105	1015345 48 3923 3923 22.5 22.5 3 0 4 4 16
106	1015393 14573 3923 93409 22.5 53.375742986425 523 1 3 1045 2603
107	1029966 6094 3923 93245 22.5 53.370574798486 219 1 2 328 546
108	1036060 48 3923 3923 22.5 22.5 3 0 4 4 16
109	1036108 22373 3923 93399 22.5 53.375742954277 803 1 3 1609 3983
110	1058481 5916 3923 93292 22.5 53.371115626318 213 1 2 319 531
111	1064397 11000 4125 93400 22.608436085292 53.375742954277 381 71 75 28571 2142541
112	1075397 11000 4125 93400 22.608436085292 53.375742954277 381 48 52 19808 1029824
113	1086397 11000 4127 93402 22.608436085292 53.375742954277 381 28 32 12188 389904
114	1097397 11273 4127 93402 22.608436085292 53.375742954277 381 1 381 72771 18508091
115	1108670 4316 5306 100647 23.859920469145 60.364918631352 150 32 32 4800 153600
116	1112986 4316 5308 100649 23.859920469145 60.364918631352 150 52 52 7800 405600
117	1117302 4316 5308 100649 23.859920469145 60.364918631352 150 52 52 7800 405600
118	1121618 8332 5308 100649 23.859920469145 60.364918631352 300 0 1 150 150
119	1129950 4316 5308 100649 23.859920469145 60.364918631352 150 52 52 7800 405600
120	1134266 4166 5308 100649 23.859920469145 60.364918631352 150 0 0 0 0
121	1138432 4316 5308 100649 23.859920469145 60.364918631352 150 75 75 11250 843750
122	1142748 48 7974 7974 26.2 26.2 3 0 4 4 16
123	1142796 14716 7974 93602 26.2 53.381625943163 528 1 3 1056 2612
124	1157512 5026 7974 93470 26.2 53.376761815689 181 1 2 271 451
125	1162538 7223 8229 93603 26.361487016016 53.381625943163 250 75 75 18750 1406250
126	1169761 7223 8229 93603 26.361487016016 53.381625943163 250 52 52 13000 676000
127	1176984 7223 8231 93605 26.361487016016 53.381625943163 250 32 32 8000 256000
128	1184207 7365 8231 93605 26.361487016016 53.381625943163 250 1 250 31375 5239625
129	1191572 3056 9736 93273 27.618310507354 53.370767626318 106 32 32 3392 108544
130	1194628 3056 9738 93275 27.618310507354 53.370767626318 106 52 52 5512 286624
131	1197684 3056 9738 93275 27.618310507354 53.370767626318 106 52 52 5512 286624
132	1200740 5900 9738 93275 27.618310507354 53.370767626318 212 0 1 106 106
133	1206640 3056 9738 93275 27.618310507354 53.370767626318 106 52 52 5512 286624
134	1209696 2950 9738 93275 27.618310507354 53.370767626318 106 0 0 0 0
135	1212646 3056 9738 93275 27.618310507354 53.370767626318 106 75 75 7950 596250
136	1215702 11584 10321 93608 28.106252546996 53.381625963674 400 63 1075 39936 13740784
137	1227286 11135 10321 93608 28.106252546996 53.381625963674 385 40 56 19976 1036768
138	1238421 11135 10323 93610 28.106252546996 53.381625963674 385 20 36 12276 391728
139	1249556 11412 10323 93610 28.106252546996 53.381625963674 385 1 385 74305 19096385
140	1260968 3322 10357 93624 28.10823507569 53.384848065101 115 28 36 3668 117072
141	1264290 3322 10359 93626 28.10823507569 53.384848065101 115 48 56 5968 309792
142	1267612 3322 10359 93626 28.10823507569 53.384848065101 115 48 56 5968 309792
143	1270934 6413 10359 93626 28.10823507569 53.384848065101 230 0 1 115 115
144	1277347 3321 10359 93626 28.10823507569 53.384848065101 115 48 56 5968 309792
145	1280668 3221 10359 93626 28.10823507569 53.384848065101 115 0 0.1 0.173991020341 0.015474671091102
146	1283889 3321 10359 93626 28.10823507569 53.384848065101 115 71 79 8613 645155
147	1287210 14492 10400 93644 28.108583250091 53.385196275237 501 71 1075 46507 13158293
148	1301702 13901 10400 93644 28.108583250091 53.385196275237 481 48 1052 28000 4611520
149	1315603 13808 10402 93646 28.108583250091 53.385196275237 478 28 36 15284 488848
150	1329411 14178 10402 93646 28.108583250091 53.385196275237 478 1 478 114481 36519439
151	1343589 3319 10465 93578 28.112988766095 53.381277753538 115 28 32 3664 116800
152	1346908 3412 10467 93580 28.112988766095 53.381277753538 118 48 1052 9120 3629472
153	1350320 3412 10467 93580 28.112988766095 53.381277753538 118 48 1052 9120 3629472
154	1353732 6576 10467 93580 28.112988766095 53.381277753538 236 0 1 118 118
155	1360308 3412 10467 93580 28.112988766095 53.381277753538 118 48 1052 9120 3629472
156	1363720 3299 10467 93580 28.112988766095 53.381277753538 118 0 3.342314e-05 3.342314e-05 1.1171062874596e-09
157	1367019 3412 10467 93580 28.112988766095 53.381277753538 118 71 1075 11834 4111414
158	1370431 14792 10485 93598 28.113336937309 53.381625884696 511 71 1075 51245 17812759
159	1385223 14111 10485 93598 28.113336937309 53.381625884696 488 48 1052 29352 5733216
160	1399334 13958 10487 93600 28.113336937309 53.381625884696 483 28 36 15436 493456
161	1413292 14333 10487 93600 28.113336937309 53.381625884696 483 1 483 116886 37676254
162	1427625 3324 10592 93452 28.116243301688 53.376519560879 115 28 32 3664 116800
163	1430949 3477 10594 93454 28.116243301688 53.376519560879 120 48 1052 10220 4738480
164	1434426 3477 10594 93454 28.116243301688 53.376519560879 120 48 1052 10220 4738480
165	1437903 6698 10594 93454 28.116243301688 53.376519560879 240 0 1 120 120
166	1444601 3477 10594 93454 28.116243301688 53.376519560879 120 48 1052 10220 4738480
167	1448078 3349 10594 93454 28.116243301688 53.376519560879 120 0 0 0 0
168	1451427 3477 10594 93454 28.116243301688 53.376519560879 120 71 1075 12980 5272080
169	1454904 13287 10618 93477 28.11659147849 53.376761878587 459 71 1075 46381 16375547
170	1468191 12898 10618 93477 28.11659147849 53.376761878587 446 48 1052 28172 6724080
171	1481089 12714 10620 93479 28.11659147849 53.376761878587 440 28 36 14064 449696
172	1493803 13046 10620 93479 28.11659147849 53.376761878587 440 1 440 97020 28491540
173	1506849 3408 10637 93526 28.121000155288 53.379035628807 118 28 32 3756 119632
174	1510257 3593 10639 93528 28.121000155288 53.379035628807 124 48 1052 11424 5852896
175	1513850 3593 10639 93528 28.121000155288 53.379035628807 124 48 1052 11424 5852896
176	1517443 6918 10639 93528 28.121000155288 53.379035628807 248 0 1 124 124
177	1524361 3593 10639 93528 28.121000155288 53.379035628807 124 48 1052 11424 5852896
178	1527954 3472 10639 93528 28.121000155288 53.379035628807 124 0 0.071793267417 0.071793267417 0.0051542732464089
179	1531426 3593 10639 93528 28.121000155288 53.379035628807 124 71 1075 14276 6443996
180	1535019 12629 10657 93546 28.121348323914 53.379383676596 436 71 1075 47672 19698604
181	1547648 11905 10657 93546 28.121348323914 53.379383676596 412 48 64 21432 1115040
182	1559553 11905 10659 93548 28.121348323914 53.379383676596 412 28 44 13192 422560
183	1571458 12209 10659 93548 28.121348323914 53.379383676596 412 1 412 85078 23396450
184	1583667 3201 10683 93320 28.126175405007 53.374981390632 111 32 32 3552 113664
185	1586868 3201 10685 93322 28.126175405007 53.374981390632 111 52 52 5772 300144
186	1590069 3201 10685 93322 28.126175405007 53.374981390632 111 52 52 5772 300144
187	1593270 6180 10685 93322 28.126175405007 53.374981390632 222 0 1 111 111
188	1599450 3201 10685 93322 28.126175405007 53.374981390632 111 52 52 5772 300144
189	1602651 3090 10685 93322 28.126175405007 53.374981390632 111 0 0 0 0
190	1605741 3201 10685 93322 28.126175405007 53.374981390632 111 75 75 8325 624375
191	1608942 11334 10703 93561 28.126523571567 53.379383766833 391 71 1075 43333 18300767
192	1620276 10842 10703 93561 28.126523571567 53.379383766833 375 52 64 19516 1015824
193	1631118 10842 10705 93563 28.126523571567 53.379383766833 375 32 44 12016 385184
194	1641960 11109 10705 93563 28.126523571567 53.379383766833 375 1 375 70500 17648500
195	1653069 3177 10726 93375 28.129986229525 53.375394831756 110 32 32 3520 112640
196	1656246 3177 10728 93377 28.129986229525 53.375394831756 110 52 52 5720 297440
197	1659423 3177 10728 93377 28.129986229525 53.375394831756 110 52 52 5720 297440
198	1662600 6134 10728 93377 28.129986229525 53.375394831756 220 0 1 110 110
199	1668734 3177 10728 93377 28.129986229525 53.375394831756 110 52 52 5720 297440
200	1671911 3067 10728 93377 28.129986229525 53.375394831756 110 0 0 0 0
201	1674978 3177 10728 93377 28.129986229525 53.375394831756 110 75 75 8250 618750
202	1678155 7456 10751 93410 28.130334398604 53.375742986425 257 71 1075 35275 19845657
203	1685611 6933 10751 93410 28.130334398604 53.375742986425 240 52 56 12484 649392
204	1692544 6933 10753 93412 28.130334398604 53.375742986425 240 32 36 7684 246032
205	1699477 7065 10753 93412 28.130334398604 53.375742986425 240 1 240 28920 4636840
206	1706542 3148 10769 93227 28.133276724021 53.370226798486 109 32 32 3488 111616
207	1709690 3148 10771 93229 28.133276724021 53.370226798486 109 52 52 5668 294736
208	1712838 3148 10771 93229 28.133276724021 53.370226798486 109 52 52 5668 294736
209	1715986 6078 10771 93229 28.133276724021 53.370226798486 218 0 1 109 109
210	1722064 3148 10771 93229 28.133276724021 53.370226798486 109 52 52 5668 294736
211	1725212 3039 10771 93229 28.133276724021 53.370226798486 109 0 0 0 0
212	1728251 3148 10771 93229 28.133276724021 53.370226798486 109 75 75 8175 613125
213	1731399 449 12663 50497 29.00434815152 40.324329144424 15 71 1075 11105 11581455
214	1731848 591 17797 55702 31.004348144425 41.324372043352 20 71 1075 7444 7004324
215	1732439 2595 18932 93433 31.368886147112 53.376413815689 90 32 32 2880 92160
216	1735034 2595 18934 93435 31.368886147112 53.376413815689 90 52 52 4680 243360
217	1737629 2595 18934 93435 31.368886147112 53.376413815689 90 52 52 4680 243360
218	1740224 5010 18934 93435 31.368886147112 53.376413815689 180 0 1 90 90
219	1745234 2595 18934 93435 31.368886147112 53.376413815689 90 52 52 4680 243360
220	1747829 2505 18934 93435 31.368886147112 53.376413815689 90 0 0 0 0
221	1750334 2595 18934 93435 31.368886147112 53.376413815689 90 75 75 6750 506250
222	1752929 681 20531 56083 32.004348212641 41.351606825226 23 71 1075 10669 10471199
223	1753610 389 26976 58481 33.81306123506 42.013044524105 13 71 1075 7951 8119621
224	1753999 724 32020 65098 34.718851524659 44.013044541904 24 71 1075 16764 17379744
225	1754723 492 42862 71400 38.004348171856 46.013044564213 16 71 1075 15192 16188832
226	1755215 523 53562 77611 40.823546867854 48.013044577736 17 71 1075 17271 18495041
227	1755738 10671 100695 100695 0.1 60.5 605 0 0 0 0
228	1766409 10671 100695 100695 0.1 60.5 605 0 0 0 0
229	1777080 10671 100695 100695 0.1 60.5 605 0 0 0 0
230	1787751 10671 100695 100695 0.1 60.5 605 0 0 0 0
231	1798422 10671 100695 100695 0.1 60.5 605 0 0 0 0
232	1809093 10671 100695 100695 0.1 60.5 605 0 0 0 0
233	1819764 10671 100695 100695 0.1 60.5 605 0 0 0 0
234	1830435 10671 100695 100695 0.1 60.5 605 0 0 0 0
235	1841106 10671 100695 100695 0.1 60.5 605 0 0 0 0
236	1851777 10671 100695 100695 0.1 60.5 605 0 0 0 0
237	1862448 10671 100695 100695 0.1 60.5 605 0 0 0 0
238	1873119 10671 100695 100695 0.1 60.5 605 0 0 0 0
239	1883790 10671 100695 100695 0.1 60.5 605 0 0 0 0
240	1894461 10671 100695 100695 0.1 60.5 605 0 0 0 0

