version 2
run AodvRreqFloodingMitigationScenario-0-20230518-16:07:29-7274
attr configname AodvRreqFloodingMitigationScenario
attr datetime 20230518-16:07:29
attr experiment AodvRreqFloodingMitigationScenario
attr inifile omnetpp.ini
attr iterationvars ""
attr iterationvarsf ""
attr measurement ""
attr network Scenario
attr processid 7274
attr repetition 0
attr replication #0
attr resultdir results
attr runnumber 0
attr seedset 0
param *.manager.moduleType "\"normal_car=networkprojectvanet.flooding.flooding_mitigation.SecureAodvCar *=networkprojectvanet.flooding.flooding_attack.AttackerAodvCar\""
param *.manager.moduleDisplayString "\"normal_car='i=veins/node/car,green;is=vs' *='i=veins/node/car,red;is=vs'\""
param *.manager.moduleName "\"normal_car=normal_car *=attacker_car\""
param *.normal_car[*].routing.antiFloodingTimeout 1s
param *.normal_car[*].routing.antiFloodingLimit 6
param *.manager.moduleType "\"normal_car=networkprojectvanet.veins_inet.AodvCar *=networkprojectvanet.flooding.flooding_attack.AttackerAodvCar\""
param *.manager.moduleDisplayString "\"normal_car='i=veins/node/car;is=vs' *='i=veins/node/car,red;is=vs'\""
param *.manager.moduleName "\"normal_car=normal_car *=attacker_car\""
param *.attacker_car[*].numApps 1
param *.attacker_car[*].app[0].typename "\"UdpSink\""
param *.attacker_car[*].app[0].localPort 5000
param *.attacker_car[*].routing.deletePeriod 5s
param *.attacker_car[*].routing.floodingTimer 100ms
param *.attacker_car[*].routing.floodingStart 18.1s
param *.*_car[*].ipv4.arp.typename "\"GlobalArp\""
param *.normal_car[1].numApps 1
param *.normal_car[1].app[0].typename "\"UdpBasicApp\""
param *.normal_car[1].app[0].destAddresses "\"normal_car[6]\""
param *.normal_car[1].app[0].localPort 5000
param *.normal_car[1].app[0].destPort 5000
param *.normal_car[1].app[0].messageLength 1024B
param *.normal_car[1].app[0].sendInterval 1s
param *.normal_car[1].app[0].startTime 20s
param *.normal_car[1].app[0].packetName "\"UDPData\""
param *.normal_car[*].numApps 1
param *.normal_car[*].app[0].typename "\"UdpSink\""
param *.normal_car[*].app[0].localPort 5000
param *.normal_car[*].routing.deletePeriod 5s
param *.*_car[*].wlan[*].typename "\"AckingWirelessInterface\""
param *.*_car[*].wlan[*].bitrate 2Mbps
param *.*_car[*].wlan[*].mac.headerLength 23B
param *.*_car[*].wlan[*].radio.typename "\"UnitDiskRadio\""
param *.*_car[*].wlan[*].radio.transmitter.headerLength 96b
param *.*_car[*].wlan[*].radio.transmitter.communicationRange 70m
param *.*_car[*].wlan[*].radio.transmitter.interferenceRange 0m
param *.*_car[*].wlan[*].radio.transmitter.detectionRange 0m
param *.*_car[*].wlan[*].radio.receiver.ignoreInterference true
param *.*_car[*].ipv4.configurator.typename "\"HostAutoConfigurator\""
param *.*_car[*].ipv4.configurator.interfaces "\"wlan0\""
param *.*_car[*].ipv4.configurator.mcastGroups "\"224.0.0.1\""
param *.*_car[*].mobility.typename "\"VeinsInetMobility\""
param *.manager.updateInterval 0.1s
param *.manager.launchConfig "xmldoc(\"arcavacatamap.launchd.xml\")"
param *.manager.moduleType "\"normal_car=networkprojectvanet.veins_inet.AodvCar *=networkprojectvanet.veins_inet.AodvCar\""
param *.manager.moduleDisplayString "\"normal_car='i=veins/node/car;is=vs' *='i=veins/node/car;is=vs'\""
param *.manager.moduleName "\"normal_car=normal_car *=normal_car\""
param *.*_car[*].wlan[0].radio.displayCommunicationRange true
param *.visualizer.networkRouteVisualizer.displayRoutes true

vector 0 Scenario.normal_car[0].wlan[0].radio radioMode:vector ETV
attr interpolationmode sample-hold
attr source radioModeChanged
attr title "Radio mode, vector"
vector 1 Scenario.normal_car[0].wlan[0].radio receptionState:vector ETV
attr interpolationmode sample-hold
attr source receptionStateChanged
attr title "Radio reception state, vector"
vector 2 Scenario.normal_car[0].wlan[0].radio transmissionState:vector ETV
attr interpolationmode sample-hold
attr source transmissionStateChanged
attr title "Radio transmission state, vector"
vector 3 Scenario.normal_car[1].wlan[0].radio radioMode:vector ETV
attr interpolationmode sample-hold
attr source radioModeChanged
attr title "Radio mode, vector"
vector 4 Scenario.normal_car[1].wlan[0].radio receptionState:vector ETV
attr interpolationmode sample-hold
attr source receptionStateChanged
attr title "Radio reception state, vector"
vector 5 Scenario.normal_car[1].wlan[0].radio transmissionState:vector ETV
attr interpolationmode sample-hold
attr source transmissionStateChanged
attr title "Radio transmission state, vector"
vector 6 Scenario.attacker_car[2].wlan[0].radio radioMode:vector ETV
attr interpolationmode sample-hold
attr source radioModeChanged
attr title "Radio mode, vector"
vector 7 Scenario.attacker_car[2].wlan[0].radio receptionState:vector ETV
attr interpolationmode sample-hold
attr source receptionStateChanged
attr title "Radio reception state, vector"
vector 8 Scenario.attacker_car[2].wlan[0].radio transmissionState:vector ETV
attr interpolationmode sample-hold
attr source transmissionStateChanged
attr title "Radio transmission state, vector"
vector 9 Scenario.normal_car[3].wlan[0].radio radioMode:vector ETV
attr interpolationmode sample-hold
attr source radioModeChanged
attr title "Radio mode, vector"
vector 10 Scenario.normal_car[3].wlan[0].radio receptionState:vector ETV
attr interpolationmode sample-hold
attr source receptionStateChanged
attr title "Radio reception state, vector"
vector 11 Scenario.normal_car[3].wlan[0].radio transmissionState:vector ETV
attr interpolationmode sample-hold
attr source transmissionStateChanged
attr title "Radio transmission state, vector"
vector 12 Scenario.normal_car[4].wlan[0].radio radioMode:vector ETV
attr interpolationmode sample-hold
attr source radioModeChanged
attr title "Radio mode, vector"
vector 13 Scenario.normal_car[4].wlan[0].radio receptionState:vector ETV
attr interpolationmode sample-hold
attr source receptionStateChanged
attr title "Radio reception state, vector"
vector 14 Scenario.normal_car[4].wlan[0].radio transmissionState:vector ETV
attr interpolationmode sample-hold
attr source transmissionStateChanged
attr title "Radio transmission state, vector"
vector 15 Scenario.normal_car[5].wlan[0].radio radioMode:vector ETV
attr interpolationmode sample-hold
attr source radioModeChanged
attr title "Radio mode, vector"
vector 16 Scenario.normal_car[5].wlan[0].radio receptionState:vector ETV
attr interpolationmode sample-hold
attr source receptionStateChanged
attr title "Radio reception state, vector"
vector 17 Scenario.normal_car[5].wlan[0].radio transmissionState:vector ETV
attr interpolationmode sample-hold
attr source transmissionStateChanged
attr title "Radio transmission state, vector"
vector 18 Scenario.normal_car[6].wlan[0].radio radioMode:vector ETV
attr interpolationmode sample-hold
attr source radioModeChanged
attr title "Radio mode, vector"
vector 19 Scenario.normal_car[6].wlan[0].radio receptionState:vector ETV
attr interpolationmode sample-hold
attr source receptionStateChanged
attr title "Radio reception state, vector"
vector 20 Scenario.normal_car[6].wlan[0].radio transmissionState:vector ETV
attr interpolationmode sample-hold
attr source transmissionStateChanged
attr title "Radio transmission state, vector"
vector 21 Scenario.normal_car[7].wlan[0].radio radioMode:vector ETV
attr interpolationmode sample-hold
attr source radioModeChanged
attr title "Radio mode, vector"
vector 22 Scenario.normal_car[7].wlan[0].radio receptionState:vector ETV
attr interpolationmode sample-hold
attr source receptionStateChanged
attr title "Radio reception state, vector"
vector 23 Scenario.normal_car[7].wlan[0].radio transmissionState:vector ETV
attr interpolationmode sample-hold
attr source transmissionStateChanged
attr title "Radio transmission state, vector"
vector 24 Scenario.normal_car[8].wlan[0].radio radioMode:vector ETV
attr interpolationmode sample-hold
attr source radioModeChanged
attr title "Radio mode, vector"
vector 25 Scenario.normal_car[8].wlan[0].radio receptionState:vector ETV
attr interpolationmode sample-hold
attr source receptionStateChanged
attr title "Radio reception state, vector"
vector 26 Scenario.normal_car[8].wlan[0].radio transmissionState:vector ETV
attr interpolationmode sample-hold
attr source transmissionStateChanged
attr title "Radio transmission state, vector"
vector 27 Scenario.normal_car[9].wlan[0].radio radioMode:vector ETV
attr interpolationmode sample-hold
attr source radioModeChanged
attr title "Radio mode, vector"
vector 28 Scenario.normal_car[9].wlan[0].radio receptionState:vector ETV
attr interpolationmode sample-hold
attr source receptionStateChanged
attr title "Radio reception state, vector"
vector 29 Scenario.normal_car[9].wlan[0].radio transmissionState:vector ETV
attr interpolationmode sample-hold
attr source transmissionStateChanged
attr title "Radio transmission state, vector"
vector 30 Scenario.attacker_car[2].udp packetSent:vector(packetBytes) ETV
attr interpolationmode none
attr source packetSent
attr title "packets sent, vector(packetBytes)"
vector 31 Scenario.attacker_car[2].wlan[0].mac rcvdPkFromHl:vector(packetBytes) ETV
attr interpolationmode none
attr source packetReceivedFromUpper
attr title "packets received from higher layer, vector(packetBytes)"
vector 32 Scenario.attacker_car[2].wlan[0].mac.queue packetPushed:vector(packetBytes) ETV
attr interpolationmode none
attr title "packet pushed, vector(packetBytes)"
vector 33 Scenario.attacker_car[2].wlan[0].mac.queue queueLength:vector ETV
attr interpolationmode sample-hold
attr source "count(packetPushed) - count(packetPopped) - count(packetRemoved) - count(packetDropped)"
attr title "queue length, vector"
vector 34 Scenario.attacker_car[2].wlan[0].mac.queue packetPopped:vector(packetBytes) ETV
attr interpolationmode none
attr title "packet popped, vector(packetBytes)"
vector 35 Scenario.attacker_car[2].wlan[0].mac.queue queueingTime:vector ETV
attr interpolationmode none
attr source queueingTime(packetPopped)
attr title "queueing times, vector"
attr unit s
vector 36 Scenario.attacker_car[2].wlan[0].mac sentDownPk:vector(packetBytes) ETV
attr interpolationmode none
attr source packetSentToLower
attr title "packets sent to lower layer, vector(packetBytes)"
vector 37 Scenario.normal_car[4].wlan[0].mac rcvdPkFromLl:vector(packetBytes) ETV
attr interpolationmode none
attr source packetReceivedFromLower
attr title "packets received from lower layer, vector(packetBytes)"
vector 38 Scenario.normal_car[4].wlan[0].mac passedUpPk:vector(packetBytes) ETV
attr interpolationmode none
attr source packetSentToUpper
attr title "packets passed to higher layer, vector(packetBytes)"
vector 39 Scenario.normal_car[4].udp packetReceived:vector(packetBytes) ETV
attr interpolationmode none
attr source packetReceived
attr title "packets received, vector(packetBytes)"
vector 40 Scenario.normal_car[4].udp passedUpPk:vector(count) ETV
attr interpolationmode none
attr source packetSentToUpper
attr title "packets passed up, vector(count)"
vector 41 Scenario.normal_car[1].wlan[0].mac rcvdPkFromLl:vector(packetBytes) ETV
attr interpolationmode none
attr source packetReceivedFromLower
attr title "packets received from lower layer, vector(packetBytes)"
vector 42 Scenario.normal_car[1].wlan[0].mac passedUpPk:vector(packetBytes) ETV
attr interpolationmode none
attr source packetSentToUpper
attr title "packets passed to higher layer, vector(packetBytes)"
vector 43 Scenario.normal_car[1].udp packetReceived:vector(packetBytes) ETV
attr interpolationmode none
attr source packetReceived
attr title "packets received, vector(packetBytes)"
vector 44 Scenario.normal_car[1].udp passedUpPk:vector(count) ETV
attr interpolationmode none
attr source packetSentToUpper
attr title "packets passed up, vector(count)"
vector 45 Scenario.normal_car[4].udp packetSent:vector(packetBytes) ETV
attr interpolationmode none
attr source packetSent
attr title "packets sent, vector(packetBytes)"
vector 46 Scenario.normal_car[4].wlan[0].mac rcvdPkFromHl:vector(packetBytes) ETV
attr interpolationmode none
attr source packetReceivedFromUpper
attr title "packets received from higher layer, vector(packetBytes)"
vector 47 Scenario.normal_car[4].wlan[0].mac.queue packetPushed:vector(packetBytes) ETV
attr interpolationmode none
attr title "packet pushed, vector(packetBytes)"
vector 48 Scenario.normal_car[4].wlan[0].mac.queue queueLength:vector ETV
attr interpolationmode sample-hold
attr source "count(packetPushed) - count(packetPopped) - count(packetRemoved) - count(packetDropped)"
attr title "queue length, vector"
vector 49 Scenario.normal_car[4].wlan[0].mac.queue packetPopped:vector(packetBytes) ETV
attr interpolationmode none
attr title "packet popped, vector(packetBytes)"
vector 50 Scenario.normal_car[4].wlan[0].mac.queue queueingTime:vector ETV
attr interpolationmode none
attr source queueingTime(packetPopped)
attr title "queueing times, vector"
attr unit s
vector 51 Scenario.normal_car[4].wlan[0].mac sentDownPk:vector(packetBytes) ETV
attr interpolationmode none
attr source packetSentToLower
attr title "packets sent to lower layer, vector(packetBytes)"
vector 52 Scenario.normal_car[6].wlan[0].mac rcvdPkFromLl:vector(packetBytes) ETV
attr interpolationmode none
attr source packetReceivedFromLower
attr title "packets received from lower layer, vector(packetBytes)"
vector 53 Scenario.normal_car[6].wlan[0].mac passedUpPk:vector(packetBytes) ETV
attr interpolationmode none
attr source packetSentToUpper
attr title "packets passed to higher layer, vector(packetBytes)"
vector 54 Scenario.normal_car[6].udp packetReceived:vector(packetBytes) ETV
attr interpolationmode none
attr source packetReceived
attr title "packets received, vector(packetBytes)"
vector 55 Scenario.normal_car[6].udp passedUpPk:vector(count) ETV
attr interpolationmode none
attr source packetSentToUpper
attr title "packets passed up, vector(count)"
vector 56 Scenario.attacker_car[2].wlan[0].mac rcvdPkFromLl:vector(packetBytes) ETV
attr interpolationmode none
attr source packetReceivedFromLower
attr title "packets received from lower layer, vector(packetBytes)"
vector 57 Scenario.attacker_car[2].wlan[0].mac passedUpPk:vector(packetBytes) ETV
attr interpolationmode none
attr source packetSentToUpper
attr title "packets passed to higher layer, vector(packetBytes)"
vector 58 Scenario.attacker_car[2].udp packetReceived:vector(packetBytes) ETV
attr interpolationmode none
attr source packetReceived
attr title "packets received, vector(packetBytes)"
vector 59 Scenario.attacker_car[2].udp passedUpPk:vector(count) ETV
attr interpolationmode none
attr source packetSentToUpper
attr title "packets passed up, vector(count)"
vector 60 Scenario.normal_car[1].udp packetSent:vector(packetBytes) ETV
attr interpolationmode none
attr source packetSent
attr title "packets sent, vector(packetBytes)"
vector 61 Scenario.normal_car[1].wlan[0].mac rcvdPkFromHl:vector(packetBytes) ETV
attr interpolationmode none
attr source packetReceivedFromUpper
attr title "packets received from higher layer, vector(packetBytes)"
vector 62 Scenario.normal_car[1].wlan[0].mac.queue packetPushed:vector(packetBytes) ETV
attr interpolationmode none
attr title "packet pushed, vector(packetBytes)"
vector 63 Scenario.normal_car[1].wlan[0].mac.queue queueLength:vector ETV
attr interpolationmode sample-hold
attr source "count(packetPushed) - count(packetPopped) - count(packetRemoved) - count(packetDropped)"
attr title "queue length, vector"
vector 64 Scenario.normal_car[1].wlan[0].mac.queue packetPopped:vector(packetBytes) ETV
attr interpolationmode none
attr title "packet popped, vector(packetBytes)"
vector 65 Scenario.normal_car[1].wlan[0].mac.queue queueingTime:vector ETV
attr interpolationmode none
attr source queueingTime(packetPopped)
attr title "queueing times, vector"
attr unit s
vector 66 Scenario.normal_car[1].wlan[0].mac sentDownPk:vector(packetBytes) ETV
attr interpolationmode none
attr source packetSentToLower
attr title "packets sent to lower layer, vector(packetBytes)"
vector 67 Scenario.normal_car[6].udp packetSent:vector(packetBytes) ETV
attr interpolationmode none
attr source packetSent
attr title "packets sent, vector(packetBytes)"
vector 68 Scenario.normal_car[6].wlan[0].mac rcvdPkFromHl:vector(packetBytes) ETV
attr interpolationmode none
attr source packetReceivedFromUpper
attr title "packets received from higher layer, vector(packetBytes)"
vector 69 Scenario.normal_car[6].wlan[0].mac.queue packetPushed:vector(packetBytes) ETV
attr interpolationmode none
attr title "packet pushed, vector(packetBytes)"
vector 70 Scenario.normal_car[6].wlan[0].mac.queue queueLength:vector ETV
attr interpolationmode sample-hold
attr source "count(packetPushed) - count(packetPopped) - count(packetRemoved) - count(packetDropped)"
attr title "queue length, vector"
vector 71 Scenario.normal_car[6].wlan[0].mac.queue packetPopped:vector(packetBytes) ETV
attr interpolationmode none
attr title "packet popped, vector(packetBytes)"
vector 72 Scenario.normal_car[6].wlan[0].mac.queue queueingTime:vector ETV
attr interpolationmode none
attr source queueingTime(packetPopped)
attr title "queueing times, vector"
attr unit s
vector 73 Scenario.normal_car[6].wlan[0].mac sentDownPk:vector(packetBytes) ETV
attr interpolationmode none
attr source packetSentToLower
attr title "packets sent to lower layer, vector(packetBytes)"
vector 74 Scenario.normal_car[8].wlan[0].mac rcvdPkFromLl:vector(packetBytes) ETV
attr interpolationmode none
attr source packetReceivedFromLower
attr title "packets received from lower layer, vector(packetBytes)"
vector 75 Scenario.normal_car[8].wlan[0].mac passedUpPk:vector(packetBytes) ETV
attr interpolationmode none
attr source packetSentToUpper
attr title "packets passed to higher layer, vector(packetBytes)"
vector 76 Scenario.normal_car[8].udp packetReceived:vector(packetBytes) ETV
attr interpolationmode none
attr source packetReceived
attr title "packets received, vector(packetBytes)"
vector 77 Scenario.normal_car[8].udp passedUpPk:vector(count) ETV
attr interpolationmode none
attr source packetSentToUpper
attr title "packets passed up, vector(count)"
vector 78 Scenario.normal_car[10].wlan[0].radio radioMode:vector ETV
attr interpolationmode sample-hold
attr source radioModeChanged
attr title "Radio mode, vector"
vector 79 Scenario.normal_car[10].wlan[0].radio receptionState:vector ETV
attr interpolationmode sample-hold
attr source receptionStateChanged
attr title "Radio reception state, vector"
vector 80 Scenario.normal_car[10].wlan[0].radio transmissionState:vector ETV
attr interpolationmode sample-hold
attr source transmissionStateChanged
attr title "Radio transmission state, vector"
vector 81 Scenario.normal_car[11].wlan[0].radio radioMode:vector ETV
attr interpolationmode sample-hold
attr source radioModeChanged
attr title "Radio mode, vector"
vector 82 Scenario.normal_car[11].wlan[0].radio receptionState:vector ETV
attr interpolationmode sample-hold
attr source receptionStateChanged
attr title "Radio reception state, vector"
vector 83 Scenario.normal_car[11].wlan[0].radio transmissionState:vector ETV
attr interpolationmode sample-hold
attr source transmissionStateChanged
attr title "Radio transmission state, vector"
vector 84 Scenario.normal_car[1].app[0] packetSent:vector(packetBytes) ETV
attr interpolationmode none
attr source packetSent
attr title "packets sent, vector(packetBytes)"
vector 85 Scenario.normal_car[8].wlan[0].mac packetDropNotAddressedToUs:vector(packetBytes) ETV
attr interpolationmode none
attr source packetDropReasonIsNotAddressedToUs(packetDropped)
attr title "packet drop: not addressed to us, vector(packetBytes)"
vector 86 Scenario.normal_car[6].wlan[0].mac packetDropNotAddressedToUs:vector(packetBytes) ETV
attr interpolationmode none
attr source packetDropReasonIsNotAddressedToUs(packetDropped)
attr title "packet drop: not addressed to us, vector(packetBytes)"
vector 87 Scenario.normal_car[4].wlan[0].mac packetDropNotAddressedToUs:vector(packetBytes) ETV
attr interpolationmode none
attr source packetDropReasonIsNotAddressedToUs(packetDropped)
attr title "packet drop: not addressed to us, vector(packetBytes)"
vector 88 Scenario.normal_car[1].wlan[0].mac packetDropNotAddressedToUs:vector(packetBytes) ETV
attr interpolationmode none
attr source packetDropReasonIsNotAddressedToUs(packetDropped)
attr title "packet drop: not addressed to us, vector(packetBytes)"
vector 89 Scenario.normal_car[6].app[0] packetReceived:vector(packetBytes) ETV
attr interpolationmode none
attr source packetReceived
attr title "packets received, vector(packetBytes)"
vector 90 Scenario.normal_car[6].app[0] throughput:vector ETV
attr source throughput(packetReceived)
attr title "throughput, vector"
attr unit bps
vector 91 Scenario.normal_car[6].app[0] endToEndDelay:vector ETV
attr interpolationmode none
attr source dataAge(packetReceived)
attr title "end-to-end delay, vector"
attr unit s
vector 92 Scenario.normal_car[6].app[0] rcvdPkSeqNo:vector ETV
attr interpolationmode none
attr source appPkSeqNo(packetReceived)
attr title "received packet sequence number, vector"
vector 93 Scenario.attacker_car[2].wlan[0].mac packetDropNotAddressedToUs:vector(packetBytes) ETV
attr interpolationmode none
attr source packetDropReasonIsNotAddressedToUs(packetDropped)
attr title "packet drop: not addressed to us, vector(packetBytes)"
vector 94 Scenario.normal_car[12].wlan[0].radio radioMode:vector ETV
attr interpolationmode sample-hold
attr source radioModeChanged
attr title "Radio mode, vector"
vector 95 Scenario.normal_car[12].wlan[0].radio receptionState:vector ETV
attr interpolationmode sample-hold
attr source receptionStateChanged
attr title "Radio reception state, vector"
vector 96 Scenario.normal_car[12].wlan[0].radio transmissionState:vector ETV
attr interpolationmode sample-hold
attr source transmissionStateChanged
attr title "Radio transmission state, vector"
vector 97 Scenario.normal_car[13].wlan[0].radio radioMode:vector ETV
attr interpolationmode sample-hold
attr source radioModeChanged
attr title "Radio mode, vector"
vector 98 Scenario.normal_car[13].wlan[0].radio receptionState:vector ETV
attr interpolationmode sample-hold
attr source receptionStateChanged
attr title "Radio reception state, vector"
vector 99 Scenario.normal_car[13].wlan[0].radio transmissionState:vector ETV
attr interpolationmode sample-hold
attr source transmissionStateChanged
attr title "Radio transmission state, vector"
vector 100 Scenario.normal_car[14].wlan[0].radio radioMode:vector ETV
attr interpolationmode sample-hold
attr source radioModeChanged
attr title "Radio mode, vector"
vector 101 Scenario.normal_car[14].wlan[0].radio receptionState:vector ETV
attr interpolationmode sample-hold
attr source receptionStateChanged
attr title "Radio reception state, vector"
vector 102 Scenario.normal_car[14].wlan[0].radio transmissionState:vector ETV
attr interpolationmode sample-hold
attr source transmissionStateChanged
attr title "Radio transmission state, vector"
vector 103 Scenario.normal_car[8].udp packetSent:vector(packetBytes) ETV
attr interpolationmode none
attr source packetSent
attr title "packets sent, vector(packetBytes)"
vector 104 Scenario.normal_car[8].wlan[0].mac rcvdPkFromHl:vector(packetBytes) ETV
attr interpolationmode none
attr source packetReceivedFromUpper
attr title "packets received from higher layer, vector(packetBytes)"
vector 105 Scenario.normal_car[8].wlan[0].mac.queue packetPushed:vector(packetBytes) ETV
attr interpolationmode none
attr title "packet pushed, vector(packetBytes)"
vector 106 Scenario.normal_car[8].wlan[0].mac.queue queueLength:vector ETV
attr interpolationmode sample-hold
attr source "count(packetPushed) - count(packetPopped) - count(packetRemoved) - count(packetDropped)"
attr title "queue length, vector"
vector 107 Scenario.normal_car[8].wlan[0].mac.queue packetPopped:vector(packetBytes) ETV
attr interpolationmode none
attr title "packet popped, vector(packetBytes)"
vector 108 Scenario.normal_car[8].wlan[0].mac.queue queueingTime:vector ETV
attr interpolationmode none
attr source queueingTime(packetPopped)
attr title "queueing times, vector"
attr unit s
vector 109 Scenario.normal_car[8].wlan[0].mac sentDownPk:vector(packetBytes) ETV
attr interpolationmode none
attr source packetSentToLower
attr title "packets sent to lower layer, vector(packetBytes)"
vector 110 Scenario.normal_car[10].wlan[0].mac rcvdPkFromLl:vector(packetBytes) ETV
attr interpolationmode none
attr source packetReceivedFromLower
attr title "packets received from lower layer, vector(packetBytes)"
vector 111 Scenario.normal_car[10].wlan[0].mac passedUpPk:vector(packetBytes) ETV
attr interpolationmode none
attr source packetSentToUpper
attr title "packets passed to higher layer, vector(packetBytes)"
vector 112 Scenario.normal_car[10].udp packetReceived:vector(packetBytes) ETV
attr interpolationmode none
attr source packetReceived
attr title "packets received, vector(packetBytes)"
vector 113 Scenario.normal_car[10].udp passedUpPk:vector(count) ETV
attr interpolationmode none
attr source packetSentToUpper
attr title "packets passed up, vector(count)"
vector 114 Scenario.normal_car[10].udp packetSent:vector(packetBytes) ETV
attr interpolationmode none
attr source packetSent
attr title "packets sent, vector(packetBytes)"
vector 115 Scenario.normal_car[10].wlan[0].mac rcvdPkFromHl:vector(packetBytes) ETV
attr interpolationmode none
attr source packetReceivedFromUpper
attr title "packets received from higher layer, vector(packetBytes)"
vector 116 Scenario.normal_car[10].wlan[0].mac.queue packetPushed:vector(packetBytes) ETV
attr interpolationmode none
attr title "packet pushed, vector(packetBytes)"
vector 117 Scenario.normal_car[10].wlan[0].mac.queue queueLength:vector ETV
attr interpolationmode sample-hold
attr source "count(packetPushed) - count(packetPopped) - count(packetRemoved) - count(packetDropped)"
attr title "queue length, vector"
vector 118 Scenario.normal_car[10].wlan[0].mac.queue packetPopped:vector(packetBytes) ETV
attr interpolationmode none
attr title "packet popped, vector(packetBytes)"
vector 119 Scenario.normal_car[10].wlan[0].mac.queue queueingTime:vector ETV
attr interpolationmode none
attr source queueingTime(packetPopped)
attr title "queueing times, vector"
attr unit s
vector 120 Scenario.normal_car[10].wlan[0].mac sentDownPk:vector(packetBytes) ETV
attr interpolationmode none
attr source packetSentToLower
attr title "packets sent to lower layer, vector(packetBytes)"
vector 121 Scenario.normal_car[13].wlan[0].mac rcvdPkFromLl:vector(packetBytes) ETV
attr interpolationmode none
attr source packetReceivedFromLower
attr title "packets received from lower layer, vector(packetBytes)"
vector 122 Scenario.normal_car[13].wlan[0].mac passedUpPk:vector(packetBytes) ETV
attr interpolationmode none
attr source packetSentToUpper
attr title "packets passed to higher layer, vector(packetBytes)"
vector 123 Scenario.normal_car[13].udp packetReceived:vector(packetBytes) ETV
attr interpolationmode none
attr source packetReceived
attr title "packets received, vector(packetBytes)"
vector 124 Scenario.normal_car[13].udp passedUpPk:vector(count) ETV
attr interpolationmode none
attr source packetSentToUpper
attr title "packets passed up, vector(count)"
vector 125 Scenario.normal_car[13].udp packetSent:vector(packetBytes) ETV
attr interpolationmode none
attr source packetSent
attr title "packets sent, vector(packetBytes)"
vector 126 Scenario.normal_car[13].wlan[0].mac rcvdPkFromHl:vector(packetBytes) ETV
attr interpolationmode none
attr source packetReceivedFromUpper
attr title "packets received from higher layer, vector(packetBytes)"
vector 127 Scenario.normal_car[13].wlan[0].mac.queue packetPushed:vector(packetBytes) ETV
attr interpolationmode none
attr title "packet pushed, vector(packetBytes)"
vector 128 Scenario.normal_car[13].wlan[0].mac.queue queueLength:vector ETV
attr interpolationmode sample-hold
attr source "count(packetPushed) - count(packetPopped) - count(packetRemoved) - count(packetDropped)"
attr title "queue length, vector"
vector 129 Scenario.normal_car[13].wlan[0].mac.queue packetPopped:vector(packetBytes) ETV
attr interpolationmode none
attr title "packet popped, vector(packetBytes)"
vector 130 Scenario.normal_car[13].wlan[0].mac.queue queueingTime:vector ETV
attr interpolationmode none
attr source queueingTime(packetPopped)
attr title "queueing times, vector"
attr unit s
vector 131 Scenario.normal_car[13].wlan[0].mac sentDownPk:vector(packetBytes) ETV
attr interpolationmode none
attr source packetSentToLower
attr title "packets sent to lower layer, vector(packetBytes)"
vector 132 Scenario.normal_car[14].wlan[0].mac rcvdPkFromLl:vector(packetBytes) ETV
attr interpolationmode none
attr source packetReceivedFromLower
attr title "packets received from lower layer, vector(packetBytes)"
vector 133 Scenario.normal_car[14].wlan[0].mac passedUpPk:vector(packetBytes) ETV
attr interpolationmode none
attr source packetSentToUpper
attr title "packets passed to higher layer, vector(packetBytes)"
vector 134 Scenario.normal_car[14].udp packetReceived:vector(packetBytes) ETV
attr interpolationmode none
attr source packetReceived
attr title "packets received, vector(packetBytes)"
vector 135 Scenario.normal_car[14].udp passedUpPk:vector(count) ETV
attr interpolationmode none
attr source packetSentToUpper
attr title "packets passed up, vector(count)"
vector 136 Scenario.normal_car[0].wlan[0].mac rcvdPkFromLl:vector(packetBytes) ETV
attr interpolationmode none
attr source packetReceivedFromLower
attr title "packets received from lower layer, vector(packetBytes)"
vector 137 Scenario.normal_car[0].wlan[0].mac packetDropNotAddressedToUs:vector(packetBytes) ETV
attr interpolationmode none
attr source packetDropReasonIsNotAddressedToUs(packetDropped)
attr title "packet drop: not addressed to us, vector(packetBytes)"
vector 138 Scenario.normal_car[0].wlan[0].mac passedUpPk:vector(packetBytes) ETV
attr interpolationmode none
attr source packetSentToUpper
attr title "packets passed to higher layer, vector(packetBytes)"
vector 139 Scenario.normal_car[0].udp packetReceived:vector(packetBytes) ETV
attr interpolationmode none
attr source packetReceived
attr title "packets received, vector(packetBytes)"
vector 140 Scenario.normal_car[0].udp passedUpPk:vector(count) ETV
attr interpolationmode none
attr source packetSentToUpper
attr title "packets passed up, vector(count)"
vector 141 Scenario.normal_car[0].udp packetSent:vector(packetBytes) ETV
attr interpolationmode none
attr source packetSent
attr title "packets sent, vector(packetBytes)"
vector 142 Scenario.normal_car[0].wlan[0].mac rcvdPkFromHl:vector(packetBytes) ETV
attr interpolationmode none
attr source packetReceivedFromUpper
attr title "packets received from higher layer, vector(packetBytes)"
vector 143 Scenario.normal_car[0].wlan[0].mac.queue packetPushed:vector(packetBytes) ETV
attr interpolationmode none
attr title "packet pushed, vector(packetBytes)"
vector 144 Scenario.normal_car[0].wlan[0].mac.queue queueLength:vector ETV
attr interpolationmode sample-hold
attr source "count(packetPushed) - count(packetPopped) - count(packetRemoved) - count(packetDropped)"
attr title "queue length, vector"
vector 145 Scenario.normal_car[0].wlan[0].mac.queue packetPopped:vector(packetBytes) ETV
attr interpolationmode none
attr title "packet popped, vector(packetBytes)"
vector 146 Scenario.normal_car[0].wlan[0].mac.queue queueingTime:vector ETV
attr interpolationmode none
attr source queueingTime(packetPopped)
attr title "queueing times, vector"
attr unit s
vector 147 Scenario.normal_car[0].wlan[0].mac sentDownPk:vector(packetBytes) ETV
attr interpolationmode none
attr source packetSentToLower
attr title "packets sent to lower layer, vector(packetBytes)"
vector 148 Scenario.normal_car[3].wlan[0].mac rcvdPkFromLl:vector(packetBytes) ETV
attr interpolationmode none
attr source packetReceivedFromLower
attr title "packets received from lower layer, vector(packetBytes)"
vector 149 Scenario.normal_car[3].wlan[0].mac passedUpPk:vector(packetBytes) ETV
attr interpolationmode none
attr source packetSentToUpper
attr title "packets passed to higher layer, vector(packetBytes)"
vector 150 Scenario.normal_car[3].udp packetReceived:vector(packetBytes) ETV
attr interpolationmode none
attr source packetReceived
attr title "packets received, vector(packetBytes)"
vector 151 Scenario.normal_car[3].udp passedUpPk:vector(count) ETV
attr interpolationmode none
attr source packetSentToUpper
attr title "packets passed up, vector(count)"
vector 152 Scenario.normal_car[3].udp packetSent:vector(packetBytes) ETV
attr interpolationmode none
attr source packetSent
attr title "packets sent, vector(packetBytes)"
vector 153 Scenario.normal_car[3].wlan[0].mac rcvdPkFromHl:vector(packetBytes) ETV
attr interpolationmode none
attr source packetReceivedFromUpper
attr title "packets received from higher layer, vector(packetBytes)"
vector 154 Scenario.normal_car[3].wlan[0].mac.queue packetPushed:vector(packetBytes) ETV
attr interpolationmode none
attr title "packet pushed, vector(packetBytes)"
vector 155 Scenario.normal_car[3].wlan[0].mac.queue queueLength:vector ETV
attr interpolationmode sample-hold
attr source "count(packetPushed) - count(packetPopped) - count(packetRemoved) - count(packetDropped)"
attr title "queue length, vector"
vector 156 Scenario.normal_car[3].wlan[0].mac.queue packetPopped:vector(packetBytes) ETV
attr interpolationmode none
attr title "packet popped, vector(packetBytes)"
vector 157 Scenario.normal_car[3].wlan[0].mac.queue queueingTime:vector ETV
attr interpolationmode none
attr source queueingTime(packetPopped)
attr title "queueing times, vector"
attr unit s
vector 158 Scenario.normal_car[3].wlan[0].mac sentDownPk:vector(packetBytes) ETV
attr interpolationmode none
attr source packetSentToLower
attr title "packets sent to lower layer, vector(packetBytes)"
vector 159 Scenario.normal_car[5].wlan[0].mac rcvdPkFromLl:vector(packetBytes) ETV
attr interpolationmode none
attr source packetReceivedFromLower
attr title "packets received from lower layer, vector(packetBytes)"
vector 160 Scenario.normal_car[5].wlan[0].mac passedUpPk:vector(packetBytes) ETV
attr interpolationmode none
attr source packetSentToUpper
attr title "packets passed to higher layer, vector(packetBytes)"
vector 161 Scenario.normal_car[5].udp packetReceived:vector(packetBytes) ETV
attr interpolationmode none
attr source packetReceived
attr title "packets received, vector(packetBytes)"
vector 162 Scenario.normal_car[5].udp passedUpPk:vector(count) ETV
attr interpolationmode none
attr source packetSentToUpper
attr title "packets passed up, vector(count)"
vector 163 Scenario.normal_car[5].udp packetSent:vector(packetBytes) ETV
attr interpolationmode none
attr source packetSent
attr title "packets sent, vector(packetBytes)"
vector 164 Scenario.normal_car[5].wlan[0].mac rcvdPkFromHl:vector(packetBytes) ETV
attr interpolationmode none
attr source packetReceivedFromUpper
attr title "packets received from higher layer, vector(packetBytes)"
vector 165 Scenario.normal_car[5].wlan[0].mac.queue packetPushed:vector(packetBytes) ETV
attr interpolationmode none
attr title "packet pushed, vector(packetBytes)"
vector 166 Scenario.normal_car[5].wlan[0].mac.queue queueLength:vector ETV
attr interpolationmode sample-hold
attr source "count(packetPushed) - count(packetPopped) - count(packetRemoved) - count(packetDropped)"
attr title "queue length, vector"
vector 167 Scenario.normal_car[5].wlan[0].mac.queue packetPopped:vector(packetBytes) ETV
attr interpolationmode none
attr title "packet popped, vector(packetBytes)"
vector 168 Scenario.normal_car[5].wlan[0].mac.queue queueingTime:vector ETV
attr interpolationmode none
attr source queueingTime(packetPopped)
attr title "queueing times, vector"
attr unit s
vector 169 Scenario.normal_car[5].wlan[0].mac sentDownPk:vector(packetBytes) ETV
attr interpolationmode none
attr source packetSentToLower
attr title "packets sent to lower layer, vector(packetBytes)"
vector 170 Scenario.normal_car[7].wlan[0].mac rcvdPkFromLl:vector(packetBytes) ETV
attr interpolationmode none
attr source packetReceivedFromLower
attr title "packets received from lower layer, vector(packetBytes)"
vector 171 Scenario.normal_car[7].wlan[0].mac passedUpPk:vector(packetBytes) ETV
attr interpolationmode none
attr source packetSentToUpper
attr title "packets passed to higher layer, vector(packetBytes)"
vector 172 Scenario.normal_car[7].udp packetReceived:vector(packetBytes) ETV
attr interpolationmode none
attr source packetReceived
attr title "packets received, vector(packetBytes)"
vector 173 Scenario.normal_car[7].udp passedUpPk:vector(count) ETV
attr interpolationmode none
attr source packetSentToUpper
attr title "packets passed up, vector(count)"
vector 174 Scenario.normal_car[7].udp packetSent:vector(packetBytes) ETV
attr interpolationmode none
attr source packetSent
attr title "packets sent, vector(packetBytes)"
vector 175 Scenario.normal_car[7].wlan[0].mac rcvdPkFromHl:vector(packetBytes) ETV
attr interpolationmode none
attr source packetReceivedFromUpper
attr title "packets received from higher layer, vector(packetBytes)"
vector 176 Scenario.normal_car[7].wlan[0].mac.queue packetPushed:vector(packetBytes) ETV
attr interpolationmode none
attr title "packet pushed, vector(packetBytes)"
vector 177 Scenario.normal_car[7].wlan[0].mac.queue queueLength:vector ETV
attr interpolationmode sample-hold
attr source "count(packetPushed) - count(packetPopped) - count(packetRemoved) - count(packetDropped)"
attr title "queue length, vector"
vector 178 Scenario.normal_car[7].wlan[0].mac.queue packetPopped:vector(packetBytes) ETV
attr interpolationmode none
attr title "packet popped, vector(packetBytes)"
vector 179 Scenario.normal_car[7].wlan[0].mac.queue queueingTime:vector ETV
attr interpolationmode none
attr source queueingTime(packetPopped)
attr title "queueing times, vector"
attr unit s
vector 180 Scenario.normal_car[7].wlan[0].mac sentDownPk:vector(packetBytes) ETV
attr interpolationmode none
attr source packetSentToLower
attr title "packets sent to lower layer, vector(packetBytes)"
vector 181 Scenario.normal_car[9].wlan[0].mac rcvdPkFromLl:vector(packetBytes) ETV
attr interpolationmode none
attr source packetReceivedFromLower
attr title "packets received from lower layer, vector(packetBytes)"
vector 182 Scenario.normal_car[9].wlan[0].mac passedUpPk:vector(packetBytes) ETV
attr interpolationmode none
attr source packetSentToUpper
attr title "packets passed to higher layer, vector(packetBytes)"
vector 183 Scenario.normal_car[9].udp packetReceived:vector(packetBytes) ETV
attr interpolationmode none
attr source packetReceived
attr title "packets received, vector(packetBytes)"
vector 184 Scenario.normal_car[9].udp passedUpPk:vector(count) ETV
attr interpolationmode none
attr source packetSentToUpper
attr title "packets passed up, vector(count)"
vector 185 Scenario.normal_car[9].udp packetSent:vector(packetBytes) ETV
attr interpolationmode none
attr source packetSent
attr title "packets sent, vector(packetBytes)"
vector 186 Scenario.normal_car[9].wlan[0].mac rcvdPkFromHl:vector(packetBytes) ETV
attr interpolationmode none
attr source packetReceivedFromUpper
attr title "packets received from higher layer, vector(packetBytes)"
vector 187 Scenario.normal_car[9].wlan[0].mac.queue packetPushed:vector(packetBytes) ETV
attr interpolationmode none
attr title "packet pushed, vector(packetBytes)"
vector 188 Scenario.normal_car[9].wlan[0].mac.queue queueLength:vector ETV
attr interpolationmode sample-hold
attr source "count(packetPushed) - count(packetPopped) - count(packetRemoved) - count(packetDropped)"
attr title "queue length, vector"
vector 189 Scenario.normal_car[9].wlan[0].mac.queue packetPopped:vector(packetBytes) ETV
attr interpolationmode none
attr title "packet popped, vector(packetBytes)"
vector 190 Scenario.normal_car[9].wlan[0].mac.queue queueingTime:vector ETV
attr interpolationmode none
attr source queueingTime(packetPopped)
attr title "queueing times, vector"
attr unit s
vector 191 Scenario.normal_car[9].wlan[0].mac sentDownPk:vector(packetBytes) ETV
attr interpolationmode none
attr source packetSentToLower
attr title "packets sent to lower layer, vector(packetBytes)"
vector 192 Scenario.normal_car[11].wlan[0].mac rcvdPkFromLl:vector(packetBytes) ETV
attr interpolationmode none
attr source packetReceivedFromLower
attr title "packets received from lower layer, vector(packetBytes)"
vector 193 Scenario.normal_car[11].wlan[0].mac passedUpPk:vector(packetBytes) ETV
attr interpolationmode none
attr source packetSentToUpper
attr title "packets passed to higher layer, vector(packetBytes)"
vector 194 Scenario.normal_car[11].udp packetReceived:vector(packetBytes) ETV
attr interpolationmode none
attr source packetReceived
attr title "packets received, vector(packetBytes)"
vector 195 Scenario.normal_car[11].udp passedUpPk:vector(count) ETV
attr interpolationmode none
attr source packetSentToUpper
attr title "packets passed up, vector(count)"
vector 196 Scenario.normal_car[11].udp packetSent:vector(packetBytes) ETV
attr interpolationmode none
attr source packetSent
attr title "packets sent, vector(packetBytes)"
vector 197 Scenario.normal_car[11].wlan[0].mac rcvdPkFromHl:vector(packetBytes) ETV
attr interpolationmode none
attr source packetReceivedFromUpper
attr title "packets received from higher layer, vector(packetBytes)"
vector 198 Scenario.normal_car[11].wlan[0].mac.queue packetPushed:vector(packetBytes) ETV
attr interpolationmode none
attr title "packet pushed, vector(packetBytes)"
vector 199 Scenario.normal_car[11].wlan[0].mac.queue queueLength:vector ETV
attr interpolationmode sample-hold
attr source "count(packetPushed) - count(packetPopped) - count(packetRemoved) - count(packetDropped)"
attr title "queue length, vector"
vector 200 Scenario.normal_car[11].wlan[0].mac.queue packetPopped:vector(packetBytes) ETV
attr interpolationmode none
attr title "packet popped, vector(packetBytes)"
vector 201 Scenario.normal_car[11].wlan[0].mac.queue queueingTime:vector ETV
attr interpolationmode none
attr source queueingTime(packetPopped)
attr title "queueing times, vector"
attr unit s
vector 202 Scenario.normal_car[11].wlan[0].mac sentDownPk:vector(packetBytes) ETV
attr interpolationmode none
attr source packetSentToLower
attr title "packets sent to lower layer, vector(packetBytes)"
vector 203 Scenario.normal_car[12].wlan[0].mac rcvdPkFromLl:vector(packetBytes) ETV
attr interpolationmode none
attr source packetReceivedFromLower
attr title "packets received from lower layer, vector(packetBytes)"
vector 204 Scenario.normal_car[12].wlan[0].mac passedUpPk:vector(packetBytes) ETV
attr interpolationmode none
attr source packetSentToUpper
attr title "packets passed to higher layer, vector(packetBytes)"
vector 205 Scenario.normal_car[12].udp packetReceived:vector(packetBytes) ETV
attr interpolationmode none
attr source packetReceived
attr title "packets received, vector(packetBytes)"
vector 206 Scenario.normal_car[12].udp passedUpPk:vector(count) ETV
attr interpolationmode none
attr source packetSentToUpper
attr title "packets passed up, vector(count)"
vector 207 Scenario.normal_car[12].udp packetSent:vector(packetBytes) ETV
attr interpolationmode none
attr source packetSent
attr title "packets sent, vector(packetBytes)"
vector 208 Scenario.normal_car[12].wlan[0].mac rcvdPkFromHl:vector(packetBytes) ETV
attr interpolationmode none
attr source packetReceivedFromUpper
attr title "packets received from higher layer, vector(packetBytes)"
vector 209 Scenario.normal_car[12].wlan[0].mac.queue packetPushed:vector(packetBytes) ETV
attr interpolationmode none
attr title "packet pushed, vector(packetBytes)"
vector 210 Scenario.normal_car[12].wlan[0].mac.queue queueLength:vector ETV
attr interpolationmode sample-hold
attr source "count(packetPushed) - count(packetPopped) - count(packetRemoved) - count(packetDropped)"
attr title "queue length, vector"
vector 211 Scenario.normal_car[12].wlan[0].mac.queue packetPopped:vector(packetBytes) ETV
attr interpolationmode none
attr title "packet popped, vector(packetBytes)"
vector 212 Scenario.normal_car[12].wlan[0].mac.queue queueingTime:vector ETV
attr interpolationmode none
attr source queueingTime(packetPopped)
attr title "queueing times, vector"
attr unit s
vector 213 Scenario.normal_car[12].wlan[0].mac sentDownPk:vector(packetBytes) ETV
attr interpolationmode none
attr source packetSentToLower
attr title "packets sent to lower layer, vector(packetBytes)"
vector 214 Scenario.normal_car[3].wlan[0].mac packetDropNotAddressedToUs:vector(packetBytes) ETV
attr interpolationmode none
attr source packetDropReasonIsNotAddressedToUs(packetDropped)
attr title "packet drop: not addressed to us, vector(packetBytes)"
vector 215 Scenario.normal_car[5].wlan[0].mac packetDropNotAddressedToUs:vector(packetBytes) ETV
attr interpolationmode none
attr source packetDropReasonIsNotAddressedToUs(packetDropped)
attr title "packet drop: not addressed to us, vector(packetBytes)"
vector 216 Scenario.normal_car[14].udp packetSent:vector(packetBytes) ETV
attr interpolationmode none
attr source packetSent
attr title "packets sent, vector(packetBytes)"
vector 217 Scenario.normal_car[14].wlan[0].mac rcvdPkFromHl:vector(packetBytes) ETV
attr interpolationmode none
attr source packetReceivedFromUpper
attr title "packets received from higher layer, vector(packetBytes)"
vector 218 Scenario.normal_car[14].wlan[0].mac.queue packetPushed:vector(packetBytes) ETV
attr interpolationmode none
attr title "packet pushed, vector(packetBytes)"
vector 219 Scenario.normal_car[14].wlan[0].mac.queue queueLength:vector ETV
attr interpolationmode sample-hold
attr source "count(packetPushed) - count(packetPopped) - count(packetRemoved) - count(packetDropped)"
attr title "queue length, vector"
vector 220 Scenario.normal_car[14].wlan[0].mac.queue packetPopped:vector(packetBytes) ETV
attr interpolationmode none
attr title "packet popped, vector(packetBytes)"
vector 221 Scenario.normal_car[14].wlan[0].mac.queue queueingTime:vector ETV
attr interpolationmode none
attr source queueingTime(packetPopped)
attr title "queueing times, vector"
attr unit s
vector 222 Scenario.normal_car[14].wlan[0].mac sentDownPk:vector(packetBytes) ETV
attr interpolationmode none
attr source packetSentToLower
attr title "packets sent to lower layer, vector(packetBytes)"
vector 223 Scenario.normal_car[7].wlan[0].mac packetDropNotAddressedToUs:vector(packetBytes) ETV
attr interpolationmode none
attr source packetDropReasonIsNotAddressedToUs(packetDropped)
attr title "packet drop: not addressed to us, vector(packetBytes)"
vector 224 Scenario.normal_car[9].wlan[0].mac packetDropNotAddressedToUs:vector(packetBytes) ETV
attr interpolationmode none
attr source packetDropReasonIsNotAddressedToUs(packetDropped)
attr title "packet drop: not addressed to us, vector(packetBytes)"
vector 225 Scenario.normal_car[10].wlan[0].mac packetDropNotAddressedToUs:vector(packetBytes) ETV
attr interpolationmode none
attr source packetDropReasonIsNotAddressedToUs(packetDropped)
attr title "packet drop: not addressed to us, vector(packetBytes)"
vector 226 Scenario.normal_car[11].wlan[0].mac packetDropNotAddressedToUs:vector(packetBytes) ETV
attr interpolationmode none
attr source packetDropReasonIsNotAddressedToUs(packetDropped)
attr title "packet drop: not addressed to us, vector(packetBytes)"
vector 227 Scenario.normal_car[12].wlan[0].mac packetDropNotAddressedToUs:vector(packetBytes) ETV
attr interpolationmode none
attr source packetDropReasonIsNotAddressedToUs(packetDropped)
attr title "packet drop: not addressed to us, vector(packetBytes)"
vector 228 Scenario.normal_car[0].app[0] throughput:vector ETV
attr source throughput(packetReceived)
attr title "throughput, vector"
attr unit bps
vector 229 Scenario.normal_car[1].app[0] throughput:vector ETV
attr source throughput(packetReceived)
attr title "throughput, vector"
attr unit bps
vector 230 Scenario.attacker_car[2].app[0] throughput:vector ETV
attr source throughput(packetReceived)
attr title "throughput, vector"
attr unit bps
vector 231 Scenario.normal_car[3].app[0] throughput:vector ETV
attr source throughput(packetReceived)
attr title "throughput, vector"
attr unit bps
vector 232 Scenario.normal_car[4].app[0] throughput:vector ETV
attr source throughput(packetReceived)
attr title "throughput, vector"
attr unit bps
vector 233 Scenario.normal_car[5].app[0] throughput:vector ETV
attr source throughput(packetReceived)
attr title "throughput, vector"
attr unit bps
vector 234 Scenario.normal_car[7].app[0] throughput:vector ETV
attr source throughput(packetReceived)
attr title "throughput, vector"
attr unit bps
vector 235 Scenario.normal_car[8].app[0] throughput:vector ETV
attr source throughput(packetReceived)
attr title "throughput, vector"
attr unit bps
vector 236 Scenario.normal_car[9].app[0] throughput:vector ETV
attr source throughput(packetReceived)
attr title "throughput, vector"
attr unit bps
vector 237 Scenario.normal_car[10].app[0] throughput:vector ETV
attr source throughput(packetReceived)
attr title "throughput, vector"
attr unit bps
vector 238 Scenario.normal_car[11].app[0] throughput:vector ETV
attr source throughput(packetReceived)
attr title "throughput, vector"
attr unit bps
vector 239 Scenario.normal_car[12].app[0] throughput:vector ETV
attr source throughput(packetReceived)
attr title "throughput, vector"
attr unit bps
vector 240 Scenario.normal_car[13].app[0] throughput:vector ETV
attr source throughput(packetReceived)
attr title "throughput, vector"
attr unit bps
vector 241 Scenario.normal_car[14].app[0] throughput:vector ETV
attr source throughput(packetReceived)
attr title "throughput, vector"
attr unit bps
0	2	0.1	0
0	2	0.1	0
0	2	0.1	4
1	2	0.1	1
1	7804	29.00000015152	3
1	7865	29.00434815152	1
1	8292	29.804583846349	3
1	8319	29.804931846349	1
1	8386	29.808629633475	3
1	8405	29.808977633475	1
1	8469	29.810355493389	3
1	8484	29.810703493389	1
1	8691	29.903337275815	3
1	8718	29.903685275815	1
1	8784	29.908904113485	3
1	8799	29.909252113485	1
1	8827	29.911481209608	3
1	8846	29.911829209608	1
1	9085	30.00000005978	3
1	9146	30.00434805978	1
1	9159	30.004348381055	3
1	9184	30.008696381055	1
1	9215	30.102764315995	3
1	9238	30.103112315995	1
1	9309	30.104385657375	3
1	9324	30.104733657375	1
1	9356	30.107705907608	3
1	9375	30.108053907608	1
1	9622	30.201350240618	3
1	9645	30.201698240618	1
1	9717	30.207007663144	3
1	9736	30.207355663144	1
1	9762	30.209240980314	3
1	9777	30.209588980314	1
1	10027	30.301980684307	3
1	10050	30.302328684307	1
1	10122	30.308498507628	3
1	10141	30.308846507628	1
1	10167	30.310117151289	3
1	10182	30.310465151289	1
1	10433	30.402235811891	3
1	10456	30.402583811891	1
1	10489	30.502246165578	3
1	10512	30.502594165578	1
1	10542	30.604232212059	3
1	10561	30.604580212059	1
1	10597	30.704893015115	3
1	10616	30.705241015115	1
1	10652	30.803497548599	3
1	10671	30.803845548599	1
1	10708	30.900581153409	3
1	10727	30.900929153409	1
1	10761	31.000000035772	3
1	10822	31.004348035772	1
1	10834	31.0043483066	3
1	10860	31.0086963066	1
1	10892	31.104069116058	3
1	10907	31.104417116058	1
1	10948	31.202059219011	3
1	10963	31.202407219011	1
1	11001	31.301982638263	3
1	11017	31.302330638263	1
1	11056	31.403377296171	3
1	11071	31.403725296171	1
1	11112	31.504405607997	3
1	11127	31.504753607997	1
1	11166	31.601249064447	3
1	11181	31.601597064447	1
1	11230	31.702906438541	3
1	11245	31.703254438541	1
1	11285	31.801566156871	3
1	11300	31.801914156871	1
1	11336	31.904408733129	3
1	11351	31.904756733129	1
1	11386	32.000000127564	3
1	11444	32.004348127564	1
1	11453	32.004348222215	3
1	11478	32.008696222215	1
1	11509	32.104348213249	3
1	11524	32.104696213249	1
1	11559	32.107974484656	3
1	11593	32.108306484656	2
1	11630	32.10834291214	1
1	11783	32.115978281688	3
1	11802	32.116326281688	1
1	11928	32.120768276157	3
1	11951	32.121116276157	1
1	12237	32.203580402239	3
1	12252	32.203928402239	1
1	12289	32.207229626619	3
1	12312	32.207577626619	1
1	12338	32.209017584589	3
1	12376	32.209365584589	1
1	12523	32.213589146805	3
1	12547	32.213937146805	1
1	12920	32.302954384877	3
1	12935	32.303302384877	1
1	12972	32.306061822387	3
1	12995	32.306409822387	1
1	13067	32.30928145219	3
1	13086	32.30962945219	1
1	13210	32.313284689724	3
1	13234	32.313632689724	1
1	13604	32.404920224927	3
1	13619	32.405268224927	1
1	13656	32.40972819614	3
1	13679	32.41007619614	1
1	13705	32.41137790549	3
1	13724	32.41172590549	1
1	13853	32.41662908514	3
1	13895	32.41697708514	1
1	14290	32.500747252239	3
1	14305	32.501095252239	1
1	14342	32.505618839199	3
1	14365	32.505966839199	1
1	14529	32.510205421607	3
1	14586	32.510553421607	2
1	14645	32.510655477227	1
1	14970	32.600699877532	3
1	14985	32.601047877532	1
1	15024	32.702035938359	3
1	15039	32.702383938359	1
1	15079	32.800166142042	3
1	15094	32.800514142042	1
1	15134	32.900345873744	3
1	15149	32.900693873744	1
1	15193	33.001866672508	3
1	15220	33.002214672508	1
1	15288	33.00281605463	3
1	15312	33.00314805463	1
1	15333	33.003487191546	3
1	15348	33.003835191546	1
1	15405	33.004482386116	3
1	15455	33.004830386116	1
1	15475	33.005824956019	3
1	15490	33.006172956019	1
1	15560	33.007812403748	3
1	15585	33.012160403748	1
1	15657	33.101827537208	3
1	15672	33.102175537208	1
1	15714	33.204877673307	3
1	15729	33.205225673307	1
1	15767	33.300083214658	3
1	15782	33.300431214658	1
1	15822	33.404279100497	3
1	15837	33.404627100497	1
1	15881	33.501153804269	3
1	15900	33.501501804269	1
1	15935	33.600058671722	3
1	15954	33.600406671722	1
1	15989	33.703824668574	3
1	16008	33.704172668574	1
1	16044	33.801800009192	3
1	16063	33.802148009192	1
1	16257	33.810967077396	3
1	16307	33.811315077396	1
1	16460	33.815111138325	3
1	16483	33.815459138325	1
1	16504	33.815805880328	3
1	16519	33.816153880328	1
1	16741	33.902317382527	3
1	16760	33.902665382527	1
1	16847	33.905860200644	3
1	16874	33.906208200644	1
1	16990	33.909249579805	3
1	17005	33.909597579805	1
1	17142	33.912581058695	3
1	17185	33.912929058695	1
1	17470	34.003495626724	3
1	17485	34.003843626724	1
1	17542	34.101189609114	3
1	17561	34.101537609114	1
1	17748	34.109626909249	3
1	17794	34.109974909249	1
1	17930	34.114296402092	3
1	17945	34.114644402092	1
1	17988	34.116755582854	3
1	18011	34.117103582854	1
1	18298	34.201049372538	3
1	18317	34.201397372538	1
1	18423	34.203951717919	3
1	18473	34.204299717919	1
1	18597	34.207997542711	3
1	18612	34.208345542711	1
1	18653	34.209756403721	3
1	18695	34.210104403721	2
1	18723	34.210296337291	1
1	19001	34.300282254156	3
1	19020	34.300630254156	1
1	19107	34.304709681369	3
1	19134	34.305057681369	1
1	19311	34.309785857981	3
1	19376	34.310133857981	2
1	19434	34.310287759246	1
1	19491	34.311975945724	3
1	19514	34.312323945724	1
1	19713	34.403397135104	3
1	19732	34.403745135104	1
1	19775	34.502393161419	3
1	19802	34.502741161419	1
1	19833	34.602268672577	3
1	19860	34.602616672577	1
1	19892	34.703385604735	3
1	19923	34.703733604735	1
1	19952	34.802683101236	3
1	19983	34.803031101236	1
1	20012	34.903035438732	3
1	20043	34.903383438732	1
1	20072	35.003573706182	3
1	20103	35.003921706182	1
1	20222	35.00758016446	3
1	20272	35.00792816446	1
1	20317	35.008615483118	3
1	20344	35.008963483118	1
1	20384	35.104532319887	3
1	20415	35.104880319887	1
1	20782	35.326508895503	3
1	20805	35.326856895503	1
1	20825	35.326857006657	3
1	20848	35.327189006657	1
1	20893	35.328436535064	3
1	20931	35.328784535064	1
1	20972	35.328812760398	3
1	20989	35.329144760398	1
1	21122	35.332940065176	3
1	21141	35.333288065176	1
1	21227	35.340771832673	3
1	21252	35.345119832673	1
1	21643	35.611885709105	3
1	21666	35.612233709105	1
1	21737	35.614514432934	3
1	21753	35.614862432934	1
1	21788	35.615633113939	3
1	21803	35.615981113939	1
1	21863	35.61727965426	3
1	21928	35.61762765426	1
1	22436	35.71220193507	3
1	22459	35.71254993507	1
1	22539	35.714063839215	3
1	22558	35.714411839215	1
1	22588	35.7149087003	3
1	22622	35.7152567003	1
1	22681	35.716107918231	3
1	22696	35.716455918231	1
1	23041	35.808153587227	3
1	23091	35.808501587227	1
1	23197	35.812237038324	3
1	23231	35.812585038324	2
1	23286	35.812887495698	1
1	23387	35.815959452011	3
1	23406	35.816307452011	1
1	23777	35.910310958122	3
1	23800	35.910658958122	1
1	23830	35.911383240193	3
1	23883	35.911731240193	2
1	23919	35.911923364268	1
1	24003	35.91255621113	3
1	24022	35.91290421113	1
1	24349	36.008696482422	3
1	24373	36.013044482422	1
1	24740	36.115885854825	3
1	24759	36.116233854825	1
1	24798	36.11646212551	3
1	24817	36.11681012551	1
1	24849	36.11687115905	3
1	24872	36.11721915905	1
1	24903	36.119156256615	3
1	24918	36.119504256615	1
1	26261	37.417244321524	3
1	26284	37.417592321524	1
1	26317	37.418194093349	3
1	26345	37.418542093349	1
1	26369	37.419283222754	3
1	26384	37.419631222754	1
1	26441	37.420723424529	3
1	26491	37.421071424529	1
1	26517	37.421974852945	3
1	26532	37.422322852945	1
1	27004	37.518079434221	3
1	27031	37.518427434221	1
1	27057	37.518800869829	3
1	27081	37.519148869829	1
1	27111	37.519191372916	3
1	27130	37.519539372916	1
1	27169	37.521004745089	3
1	27190	37.521352745089	1
1	27220	37.521639672367	3
1	27235	37.521987672367	1
1	27766	37.615377506958	3
1	27797	37.615725506958	1
1	27819	37.618538930357	3
1	27842	37.618886930357	1
1	27873	37.619545947017	3
1	27892	37.619893947017	1
1	27985	37.621278877926	3
1	28000	37.621626877926	1
1	28036	37.623662053746	3
1	28055	37.624010053746	1
1	28479	37.70971246869	3
1	28502	37.71006046869	1
1	28535	37.710252443104	3
1	28566	37.710600443104	1
1	28585	37.710663843947	3
1	28619	37.711011843947	2
1	28651	37.711116894601	1
1	28720	37.712133597633	3
1	28739	37.712481597633	1
1	29248	37.816313460372	3
1	29290	37.816661460372	1
1	29321	37.818126839527	3
1	29378	37.818474839527	2
1	29412	37.818675270582	1
1	29439	37.818789380152	3
1	29486	37.819137380152	1
1	29507	37.82047256898	3
1	29526	37.82082056898	1
1	30374	38.324844318012	3
1	30425	38.325176318012	1
1	30451	38.325292325325	3
1	30493	38.325640325325	1
1	30853	38.430095730554	3
1	30883	38.430427730554	1
1	31375	38.805594969016	3
1	31418	38.805926969016	1
1	31581	38.8085546369	3
1	31604	38.8089026369	1
1	31637	38.809179546037	3
1	31652	38.809527546037	1
1	31687	38.810410791202	3
1	31702	38.810758791202	1
1	31906	38.907887546932	3
1	31933	38.908251546932	1
1	32484	39.317121477047	3
1	32507	39.317469477047	1
1	32541	39.317753737591	3
1	32579	39.318101737591	1
1	32646	39.320632327348	3
1	32717	39.320980327348	2
1	32759	39.321302584091	1
1	32780	39.322151066795	3
1	32803	39.322499066795	1
1	33220	39.41342831214	3
1	33251	39.41377631214	1
1	33274	39.414443755009	3
1	33290	39.414791755009	1
1	33330	39.415140425642	3
1	33349	39.415488425642	1
1	33423	39.415777291387	3
1	33500	39.416125291387	1
1	33522	39.418236578855	3
1	33541	39.418584578855	1
1	33898	39.446753940641	3
1	33949	39.447085940641	1
1	34074	39.450250711419	3
1	34093	39.450598711419	1
1	34222	39.452671647219	3
1	34292	39.453019647219	1
1	34328	39.453130190796	3
1	34384	39.453478190796	2
1	34441	39.453688884155	1
1	34489	39.455396241046	3
1	34531	39.455744241046	2
1	34554	39.456046171997	1
1	34943	39.55352160728	3
1	34978	39.55388560728	1
1	35051	39.556065971496	3
1	35105	39.556413971496	1
1	35147	39.557058301783	3
1	35166	39.557406301783	1
1	35208	39.557801968449	3
1	35277	39.558149968449	2
1	35325	39.558489724813	1
1	35343	39.559110102848	3
1	35381	39.559458102848	2
1	35411	39.559717774713	1
1	35844	39.612651451059	3
1	35879	39.612999451059	1
1	35898	39.613414334496	3
1	35918	39.613762334496	1
1	36019	39.615728935585	3
1	36050	39.616076935585	1
1	36076	39.617383516538	3
1	36118	39.617731516538	2
1	36140	39.617757670641	1
1	36166	39.61776431716	3
1	36181	39.61811231716	1
1	36567	39.709991599285	3
1	36598	39.710339599285	1
1	36688	39.711253969935	3
1	36723	39.711601969935	1
1	36793	39.713520005055	3
1	36808	39.713868005055	1
1	36848	39.713920825245	3
1	36886	39.714268825245	2
1	36921	39.714471506423	1
1	36945	39.714480299212	3
1	36968	39.714828299212	1
1	38225	41.218007393143	3
1	38260	41.218355393143	1
1	38281	41.218379461463	3
1	38308	41.218727461463	1
1	38340	41.218827682824	3
1	38355	41.219175682824	1
1	38398	41.220719796382	3
1	38413	41.221067796382	1
1	38474	41.221499931754	3
1	38543	41.221847931754	1
1	38987	41.314680406194	3
1	39022	41.315028406194	1
1	39041	41.315627304284	3
1	39061	41.315975304284	1
1	39098	41.316048815233	3
1	39125	41.316396815233	1
1	39266	41.318194818467	3
1	39282	41.318542818467	1
1	39321	41.319823319815	3
1	39337	41.320171319815	1
1	39785	41.412113984172	3
1	39817	41.412461984172	1
1	39905	41.415017257766	3
1	39940	41.415365257766	1
1	39958	41.415507873638	3
1	39993	41.415855873638	1
1	40063	41.416809568207	3
1	40078	41.417157568207	1
1	40118	41.41718852517	3
1	40137	41.41753652517	1
1	40568	41.509125778372	3
1	40603	41.509473778372	1
1	40621	41.509551809696	3
1	40655	41.509899809696	1
1	40729	41.511572261399	3
1	40779	41.511920261399	1
1	40830	41.512039184796	3
1	40868	41.512387184796	2
1	40900	41.512654591142	1
1	40918	41.513149107143	3
1	40934	41.513497107143	1
1	41301	41.608810923356	3
1	41351	41.609158923356	1
1	41406	41.609736368711	3
1	41425	41.610084368711	1
1	41464	41.610631871584	3
1	41499	41.610979871584	1
1	41536	41.611614051161	3
1	41586	41.611962051161	1
1	41617	41.612251445979	3
1	41632	41.612599445979	1
1	41673	41.613823026429	3
1	41711	41.614171026429	1
1	42610	42.411119087687	3
1	42656	42.411467087687	1
1	42720	42.41181932564	3
1	42758	42.41216732564	2
1	42792	42.412345504032	1
1	42811	42.412674205518	3
1	42830	42.413022205518	1
1	42870	42.413686283313	3
1	42905	42.414034283313	1
1	42928	42.414779681705	3
1	42962	42.415127681705	1
1	43026	42.41703161854	3
1	43046	42.41737961854	1
1	43146	42.515183154122	3
1	43173	42.515515154122	1
1	45106	45.373576819393	3
1	45142	45.373924819393	1
1	45170	45.374188606239	3
1	45209	45.374536606239	1
1	45328	45.376372407069	3
1	45355	45.376720407069	1
1	45384	45.37723064376	3
1	45403	45.37757864376	1
1	45436	45.378382515142	3
1	45483	45.378730515142	2
1	45507	45.379027603066	1
2	2	0.1	1
2	8338	29.805401548879	2
2	8353	29.805749548879	1
2	8737	29.907896986211	2
2	8752	29.908244986211	1
2	9262	30.103212853748	2
2	9277	30.103560853748	1
2	9669	30.205216927022	2
2	9684	30.205564927022	1
2	10074	30.305288893939	2
2	10089	30.305636893939	1
2	11831	32.118300628149	2
2	11848	32.118648628149	1
2	12428	32.209494937749	2
2	12443	32.209842937749	1
2	13115	32.309675826464	2
2	13130	32.310023826464	1
2	13753	32.412761308726	2
2	13768	32.413109308726	1
2	14435	32.506779303856	2
2	14450	32.507127303856	1
2	15239	33.002467613072	2
2	15254	33.002815613072	1
2	15524	33.00747996626	2
2	15539	33.00781196626	1
2	15589	33.012160403748	2
2	15621	33.016508403748	1
2	16388	33.813762822106	2
2	16422	33.814110822106	1
2	17089	33.910848607107	2
2	17104	33.911196607107	1
2	17837	34.112653073235	2
2	17852	34.113001073235	1
2	18496	34.207147585578	2
2	18511	34.207495585578	1
2	19253	34.308539398798	2
2	19268	34.308887398798	1
2	21011	35.32979848109	2
2	21026	35.33014648109	1
2	21842	35.616997667396	2
2	21895	35.617345667396	1
2	22487	35.712678248637	2
2	22502	35.713026248637	1
2	23269	35.812820865233	2
2	23307	35.813168865233	1
2	23867	35.91168328693	2
2	23959	35.91203128693	1
2	24956	36.119892323617	2
2	24971	36.120240323617	1
2	26420	37.420624698835	2
2	26454	37.420972698835	1
2	27269	37.52279887407	2
2	27285	37.52314687407	1
2	27930	37.62065066836	2
2	27945	37.62099866836	1
2	28768	37.712617063602	2
2	28783	37.712965063602	1
2	29357	37.818457817458	2
2	29449	37.818805817458	1
2	31740	38.811285022919	2
2	31755	38.811633022919	1
2	32661	39.320769676355	2
2	32735	39.321117676355	1
2	33401	39.41563057614	2
2	33470	39.41597857614	1
2	34413	39.453486426164	2
2	34451	39.453834426164	1
2	35222	39.558042395329	2
2	35295	39.558390395329	1
2	35955	39.615292470842	2
2	35970	39.615640470842	1
2	36624	39.710474944219	2
2	36639	39.710822944219	1
2	38491	41.221523432581	2
2	38564	41.221871432581	1
2	39156	41.316805250442	2
2	39171	41.317153250442	1
2	39844	41.412954374189	2
2	39859	41.413302374189	1
2	40743	41.511617756967	2
2	40801	41.511965756967	1
2	41690	41.614067121757	2
2	41728	41.614415121757	1
2	42946	42.414884952499	2
2	43000	42.415232952499	1
2	45225	45.375091920671	2
2	45240	45.375439920671	1
3	2	0.1	0
3	2	0.1	0
3	2	0.1	4
4	2	0.1	1
4	339	18.102744240989	3
4	353	18.103092240989	1
4	437	18.204221502164	3
4	451	18.204569502164	1
4	567	18.304236432134	3
4	581	18.304584432134	1
4	698	18.401922081978	3
4	712	18.402270081978	1
4	829	18.500283738351	3
4	843	18.500631738351	1
4	960	18.602388498952	3
4	974	18.602736498952	1
4	1000	18.703958798367	3
4	1015	18.704306798367	1
4	1043	18.804061016452	3
4	1059	18.804409016452	1
4	1084	18.902644646925	3
4	1100	18.902992646925	1
4	1122	19.002400057528	3
4	1134	19.002748057528	1
4	1164	19.102840393679	3
4	1178	19.103188393679	1
4	1206	19.201964093868	3
4	1218	19.202312093868	1
4	1249	19.304628151931	3
4	1261	19.304976151931	1
4	1291	19.404180561362	3
4	1303	19.404528561362	1
4	1331	19.500355346407	3
4	1345	19.500703346407	1
4	1373	19.601687145373	3
4	1385	19.602035145373	1
4	1413	19.700435809352	3
4	1425	19.700783809352	1
4	1454	19.803241020632	3
4	1466	19.803589020632	1
4	1495	19.900101251687	3
4	1507	19.900449251687	1
4	1538	20.004163257446	3
4	1550	20.004511257446	1
4	1606	20.00902487602	3
4	1618	20.00937287602	1
4	1650	20.100701910728	3
4	1662	20.101049910728	1
4	1690	20.204350216229	3
4	1702	20.204698216229	1
4	1729	20.304350590323	3
4	1741	20.304698590323	1
4	1799	20.32760944005	3
4	1811	20.32795744005	1
4	1938	20.339277867599	3
4	1950	20.339609867599	1
4	1987	20.343958175735	3
4	2010	20.348306175735	1
4	2066	20.402602539805	3
4	2078	20.402950539805	1
4	2106	20.503902796287	3
4	2118	20.504250796287	1
4	2146	20.603394545888	3
4	2158	20.603742545888	1
4	2186	20.700591517958	3
4	2198	20.700939517958	1
4	2227	20.803603306665	3
4	2239	20.803951306665	1
4	2268	20.903199745877	3
4	2280	20.903547745877	1
4	2323	21.000716904142	3
4	2335	21.001064904142	1
4	2360	21.004348275428	3
4	2382	21.008696275428	1
4	2439	21.102687000478	3
4	2451	21.103035000478	1
4	2479	21.204723475566	3
4	2491	21.205071475566	1
4	2518	21.303793205808	3
4	2530	21.304141205808	1
4	2558	21.402609366179	3
4	2570	21.402957366179	1
4	2598	21.500529660098	3
4	2610	21.500877660098	1
4	2639	21.602073429626	3
4	2651	21.602421429626	1
4	2679	21.702368119992	3
4	2691	21.702716119992	1
4	2720	21.801322894111	3
4	2732	21.801670894111	1
4	2761	21.90093177617	3
4	2773	21.90127977617	1
4	2816	22.003684703916	3
4	2828	22.004032703916	1
4	2853	22.004348226052	3
4	2875	22.008696226052	1
4	2932	22.102280863381	3
4	2944	22.102628863381	1
4	2972	22.201082862232	3
4	2984	22.201430862232	1
4	3011	22.302842279038	3
4	3023	22.303190279038	1
4	3051	22.400676199177	3
4	3063	22.401024199177	1
4	3101	22.500094056478	3
4	3115	22.500442056478	1
4	3145	22.601620811876	3
4	3159	22.601968811876	1
4	3189	22.703088283885	3
4	3203	22.703436283885	1
4	3234	22.800748479979	3
4	3248	22.801096479979	1
4	3279	22.903060583738	3
4	3293	22.903408583738	1
4	3340	23.003084774598	3
4	3354	23.003432774598	1
4	3381	23.00434820921	3
4	3407	23.00869620921	1
4	3470	23.101932548595	3
4	3484	23.102280548595	1
4	3514	23.204718843397	3
4	3528	23.205066843397	1
4	3557	23.304513094924	3
4	3571	23.304861094924	1
4	3605	23.40340920316	3
4	3619	23.40375720316	1
4	3651	23.502249850797	3
4	3665	23.502597850797	1
4	3695	23.601797639828	3
4	3709	23.602145639828	1
4	3739	23.703065417128	3
4	3753	23.703413417128	1
4	3784	23.802185259075	3
4	3798	23.802533259075	1
4	3830	23.904511841481	3
4	3844	23.904859841481	1
4	3892	24.000496499537	3
4	3906	24.000844499537	1
4	3933	24.004348195558	3
4	3959	24.008696195558	1
4	4022	24.100301224266	3
4	4036	24.100649224266	1
4	4066	24.204849141586	3
4	4080	24.205197141586	1
4	4109	24.303333929559	3
4	4123	24.303681929559	1
4	4153	24.403265796339	3
4	4167	24.403613796339	1
4	4199	24.503353285901	3
4	4213	24.503701285901	1
4	4243	24.600854644869	3
4	4257	24.601202644869	1
4	4287	24.701052010389	3
4	4301	24.701400010389	1
4	4332	24.801790859681	3
4	4346	24.802138859681	1
4	4377	24.900644732052	3
4	4391	24.900992732052	1
4	4438	25.001577244221	3
4	4452	25.001925244221	1
4	4475	25.004348204946	3
4	4502	25.008696204946	1
4	4512	25.008696459134	3
4	4541	25.013044459134	1
4	4566	25.103039257897	3
4	4580	25.103387257897	1
4	4610	25.201818660613	3
4	4624	25.202166660613	1
4	4653	25.301625344634	3
4	4667	25.301973344634	1
4	4697	25.40285109382	3
4	4711	25.40319909382	1
4	4743	25.500192238545	3
4	4757	25.500540238545	1
4	4788	25.602193120433	3
4	4806	25.602541120433	1
4	4833	25.703171484371	3
4	4851	25.703519484371	1
4	4878	25.804941984215	3
4	4896	25.805289984215	1
4	4923	25.90479486222	3
4	4941	25.90514286222	1
4	4985	26.003264068206	3
4	4999	26.003612068206	1
4	5025	26.004348233222	3
4	5054	26.008696233222	1
4	5060	26.008696443267	3
4	5089	26.013044443267	1
4	5115	26.101044501047	3
4	5133	26.101392501047	1
4	5164	26.203175412039	3
4	5183	26.203523412039	1
4	5209	26.300806665446	3
4	5228	26.301154665446	1
4	5255	26.404976615923	3
4	5274	26.405324615923	1
4	5303	26.503265659916	3
4	5322	26.503613659916	1
4	5350	26.602909370122	3
4	5369	26.603257370122	1
4	5396	26.701266576714	3
4	5415	26.701614576714	1
4	5443	26.802071961996	3
4	5462	26.802419961996	1
4	5490	26.902331673608	3
4	5509	26.902679673608	1
4	5554	27.001222248427	3
4	5569	27.001570248427	1
4	5595	27.004348240974	3
4	5626	27.008696240974	1
4	5631	27.008696440734	3
4	5662	27.013044440734	1
4	5689	27.1031176719	3
4	5708	27.1034656719	1
4	5736	27.200794970862	3
4	5755	27.201142970862	1
4	5781	27.301690162848	3
4	5800	27.302038162848	1
4	5827	27.400552002167	3
4	5846	27.400900002167	1
4	5875	27.503373889847	3
4	5894	27.503721889847	1
4	5921	27.603281778021	3
4	5940	27.603629778021	1
4	5967	27.701586140823	3
4	5986	27.701934140823	1
4	6014	27.800691048987	3
4	6033	27.801039048987	1
4	6061	27.903891863903	3
4	6080	27.904239863903	1
4	6130	28.00434827753	3
4	6165	28.00869627753	1
4	6169	28.008696373143	3
4	6213	28.009044373143	1
4	6265	28.101843766748	3
4	6284	28.102191766748	1
4	6312	28.203312777125	3
4	6331	28.203660777125	1
4	6580	28.303368442739	3
4	6599	28.303716442739	1
4	6845	28.402548268296	3
4	6864	28.402896268296	1
4	7116	28.500100086553	3
4	7135	28.500448086553	1
4	7385	28.601797372218	3
4	7404	28.602145372218	1
4	7654	28.704402530967	3
4	7673	28.704750530967	1
4	7705	28.802071468021	3
4	7724	28.802419468021	1
4	7756	28.904591331865	3
4	7775	28.904939331865	1
4	7824	29.001084266364	3
4	7843	29.001432266364	1
4	7874	29.004348311396	3
4	7901	29.008696311396	1
4	7932	29.103462517458	3
4	7951	29.103810517458	1
4	7983	29.202826102274	3
4	8002	29.203174102274	1
4	8033	29.302833166248	3
4	8052	29.303181166248	1
4	8085	29.404325672876	3
4	8104	29.404673672876	1
4	8138	29.501327108555	3
4	8157	29.501675108555	1
4	8189	29.602545006759	3
4	8208	29.602893006759	1
4	8239	29.702616402908	3
4	8258	29.702964402908	1
4	8290	29.804583778113	3
4	8309	29.804931778113	1
4	8339	29.805401627104	3
4	8354	29.805749627104	1
4	8689	29.903337215929	3
4	8708	29.903685215929	1
4	8738	29.907897055193	3
4	8753	29.908245055193	1
4	9105	30.002932729441	3
4	9124	30.003280729441	1
4	9156	30.004348329552	3
4	9182	30.008696329552	1
4	9214	30.102764272894	3
4	9233	30.103112272894	1
4	9263	30.10321290441	3
4	9278	30.10356090441	1
4	9357	30.107705956735	3
4	9380	30.108053956735	1
4	9621	30.20135020605	3
4	9640	30.20169820605	1
4	9670	30.205216968617	3
4	9685	30.205564968617	1
4	9718	30.207007703036	3
4	9741	30.207355703036	1
4	10026	30.301980658311	3
4	10045	30.302328658311	1
4	10075	30.305288926641	3
4	10090	30.305636926641	1
4	10123	30.308498538309	3
4	10146	30.308846538309	1
4	10432	30.402235794508	3
4	10451	30.402583794508	1
4	10488	30.502246156917	3
4	10507	30.502594156917	1
4	10543	30.604232212167	3
4	10566	30.604580212167	1
4	10598	30.704893024015	3
4	10621	30.705241024015	1
4	10653	30.803497566378	3
4	10676	30.803845566378	1
4	10709	30.90058118011	3
4	10732	30.90092918011	1
4	10782	31.003835289666	3
4	10801	31.004183289666	1
4	10835	31.004348342306	3
4	10862	31.008696342306	1
4	10894	31.104069160804	3
4	10917	31.104417160804	1
4	10950	31.202059272829	3
4	10973	31.202407272829	1
4	11003	31.301982701173	3
4	11027	31.302330701173	1
4	11058	31.403377368241	3
4	11081	31.403725368241	1
4	11114	31.504405689223	3
4	11137	31.504753689223	1
4	11168	31.601249154867	3
4	11191	31.601597154867	1
4	11232	31.702906538218	3
4	11255	31.703254538218	1
4	11287	31.80156626589	3
4	11310	31.80191426589	1
4	11338	31.904408851427	3
4	11361	31.904756851427	1
4	11406	32.003462832846	3
4	11425	32.003810832846	1
4	11456	32.004348349776	3
4	11482	32.008696349776	1
4	11511	32.104348349999	3
4	11534	32.104696349999	1
4	11561	32.107974621406	3
4	11603	32.108306621406	2
4	11624	32.108342777938	1
4	11653	32.110849726678	3
4	11676	32.111197726678	1
4	11833	32.11830076496	3
4	11854	32.11864876496	1
4	12239	32.203580548019	3
4	12262	32.203928548019	1
4	12287	32.20722948353	3
4	12302	32.20757748353	1
4	12358	32.209028198621	3
4	12408	32.209376198621	1
4	12430	32.209495083789	3
4	12449	32.209843083789	1
4	12922	32.302954539388	3
4	12945	32.303302539388	1
4	12970	32.306061670632	3
4	12985	32.306409670632	1
4	13022	32.306578123238	3
4	13045	32.306926123238	1
4	13117	32.309675981743	3
4	13136	32.310023981743	1
4	13606	32.404920386941	3
4	13629	32.405268386941	1
4	13654	32.40972803639	3
4	13669	32.41007603639	1
4	13755	32.412761473183	3
4	13774	32.413109473183	1
4	13806	32.414107333064	3
4	13829	32.414455333064	1
4	14292	32.500747417508	3
4	14315	32.501095417508	1
4	14340	32.50561867337	3
4	14355	32.50596667337	1
4	14391	32.506154794836	3
4	14410	32.506502794836	1
4	14438	32.50677947741	3
4	14461	32.50712747741	1
4	14973	32.600700039138	3
4	15000	32.601048039138	1
4	15027	32.702036092875	3
4	15054	32.702384092875	1
4	15082	32.800166288376	3
4	15109	32.800514288376	1
4	15137	32.90034601145	3
4	15164	32.90069401145	1
4	15243	33.002467831816	3
4	15270	33.002815831816	1
4	15336	33.003487320407	3
4	15363	33.003835320407	1
4	15383	33.004315081642	3
4	15417	33.004663081642	2
4	15444	33.004830251461	1
4	15478	33.00582508488	3
4	15505	33.00617308488	1
4	15528	33.007480185004	3
4	15546	33.007812185004	1
4	15596	33.012160622492	3
4	15628	33.016508622492	1
4	15660	33.101827657117	3
4	15687	33.102175657117	1
4	15717	33.204877784272	3
4	15744	33.205225784272	1
4	15769	33.300083316682	3
4	15792	33.300431316682	1
4	15824	33.40427919353	3
4	15847	33.40462719353	1
4	15882	33.501153888466	3
4	15905	33.501501888466	1
4	15936	33.60005874714	3
4	15959	33.60040674714	1
4	15990	33.703824735175	3
4	16013	33.704172735175	1
4	16045	33.801800066921	3
4	16068	33.802148066921	1
4	16097	33.806868791329	3
4	16112	33.807216791329	1
4	16149	33.808075279199	3
4	16172	33.808423279199	1
4	16255	33.810967019288	3
4	16301	33.811315019288	1
4	16742	33.902317431474	3
4	16765	33.902665431474	1
4	16794	33.903785143521	3
4	16809	33.904133143521	1
4	16845	33.905860152096	3
4	16864	33.906208152096	1
4	16925	33.90885408192	3
4	16969	33.90920208192	1
4	17471	34.003495666946	3
4	17490	34.003843666946	1
4	17543	34.10118964061	3
4	17566	34.10153764061	1
4	17645	34.10620876323	3
4	17660	34.10655676323	1
4	17746	34.109626879895	3
4	17784	34.109974879895	2
4	17820	34.110300556038	1
4	18299	34.201049395081	3
4	18322	34.201397395081	1
4	18351	34.202509646824	3
4	18366	34.202857646824	1
4	18421	34.203951698	3
4	18467	34.204299698	1
4	18553	34.20757984748	3
4	18576	34.20792784748	1
4	19002	34.300282267841	3
4	19025	34.300630267841	1
4	19054	34.302802371468	3
4	19069	34.303150371468	1
4	19105	34.304709670827	3
4	19124	34.305057670827	1
4	19210	34.30755573015	3
4	19233	34.30790373015	1
4	19715	34.403397139867	3
4	19742	34.403745139867	1
4	19774	34.502393157476	3
4	19797	34.502741157476	1
4	19832	34.602268659892	3
4	19855	34.602616659892	1
4	19890	34.703385583414	3
4	19913	34.703733583414	1
4	19950	34.802683071429	3
4	19973	34.803031071429	1
4	20010	34.903035400551	3
4	20033	34.903383400551	1
4	20070	35.003573659759	3
4	20093	35.003921659759	1
4	20172	35.006384404851	3
4	20187	35.006732404851	1
4	20220	35.007580118037	3
4	20262	35.007928118037	2
4	20287	35.00799530044	1
4	20318	35.008615538372	3
4	20349	35.008963538372	1
4	20382	35.104532265203	3
4	20405	35.104880265203	1
4	20441	35.201316786331	3
4	20465	35.201664786331	1
4	20496	35.300686276248	3
4	20519	35.301034276248	1
4	20592	35.321597522685	3
4	20607	35.321945522685	1
4	20680	35.324243322832	3
4	20695	35.324591322832	1
4	20732	35.324859530332	3
4	20755	35.325207530332	1
4	21063	35.33174340491	3
4	21079	35.33207540491	1
4	21179	35.336423579458	3
4	21211	35.340771579458	1
4	21283	35.403145083155	3
4	21306	35.403493083155	1
4	21339	35.500000450463	3
4	21362	35.500348450463	1
4	21393	35.604363426814	3
4	21416	35.604711426814	1
4	21445	35.606270842868	3
4	21460	35.606618842868	1
4	21547	35.608746441571	3
4	21570	35.609094441571	1
4	21592	35.610609305573	3
4	21611	35.610957305573	1
4	22113	35.701147382557	3
4	22136	35.701495382557	1
4	22165	35.705149758885	3
4	22180	35.705497758885	1
4	22217	35.706767808102	3
4	22259	35.707115808102	2
4	22281	35.707414467195	1
4	22830	35.801871023208	3
4	22853	35.802219023208	1
4	22882	35.805450425095	3
4	22897	35.805798425095	1
4	22933	35.806873092887	3
4	22971	35.807221092887	2
4	23003	35.807534909606	1
4	23535	35.900874717612	3
4	23558	35.901222717612	1
4	23587	35.904807078172	3
4	23602	35.905155078172	1
4	23638	35.907135658595	3
4	23676	35.907483658595	2
4	23708	35.907819169976	1
4	24253	36.000152437858	3
4	24272	36.000500437858	1
4	24305	36.004348299402	3
4	24334	36.008696299402	1
4	24406	36.103826798999	3
4	24429	36.104174798999	1
4	24458	36.107909799542	3
4	24473	36.108257799542	1
4	24510	36.108721118791	3
4	24533	36.109069118791	1
4	24685	36.112776713695	3
4	24704	36.113124713695	1
4	25151	36.201434747703	3
4	25174	36.201782747703	1
4	25209	36.301204316182	3
4	25236	36.301552316182	1
4	25268	36.403386488694	3
4	25291	36.403734488694	1
4	25328	36.500501641843	3
4	25351	36.500849641843	1
4	25386	36.600315363574	3
4	25409	36.600663363574	1
4	25445	36.700082320374	3
4	25468	36.700430320374	1
4	25506	36.80277841856	3
4	25529	36.80312641856	1
4	25566	36.904647819201	3
4	25589	36.904995819201	1
4	25642	37.003349755302	3
4	25661	37.003697755302	1
4	25732	37.10416536315	3
4	25780	37.10451336315	1
4	25813	37.204921819666	3
4	25836	37.205269819666	1
4	25866	37.301408822855	3
4	25889	37.301756822855	1
4	25921	37.403517646184	3
4	25944	37.403865646184	1
4	25973	37.406797818644	3
4	25988	37.407145818644	1
4	26025	37.407465928071	3
4	26048	37.407813928071	1
4	26120	37.409708004146	3
4	26139	37.410056004146	1
4	26667	37.501158680374	3
4	26690	37.501506680374	1
4	26719	37.505901132959	3
4	26734	37.506249132959	1
4	26771	37.508710807097	3
4	26794	37.509058807097	1
4	26816	37.51095625776	3
4	26854	37.51130425776	1
4	27419	37.600971883406	3
4	27442	37.601319883406	1
4	27471	37.604409352978	3
4	27486	37.604757352978	1
4	27523	37.604823869966	3
4	27546	37.605171869966	1
4	27656	37.609628900198	3
4	27675	37.609976900198	1
4	28179	37.703197535005	3
4	28202	37.703545535005	1
4	28231	37.704893000575	3
4	28246	37.705241000575	1
4	28282	37.70592577333	3
4	28301	37.70627377333	1
4	28352	37.707293793629	3
4	28402	37.707641793629	1
4	28924	37.802030775068	3
4	28947	37.802378775068	1
4	28976	37.806689783479	3
4	28991	37.807037783479	1
4	29027	37.808756099643	3
4	29046	37.809104099643	1
4	29128	37.811902712646	3
4	29151	37.812250712646	1
4	29653	37.902036378679	3
4	29676	37.902384378679	1
4	29713	38.001161343609	3
4	29736	38.001509343609	1
4	29816	38.005246544262	3
4	29835	38.005594544262	1
4	29861	38.005641526044	3
4	29876	38.005989526044	1
4	29912	38.006605940979	3
4	29931	38.006953940979	1
4	29968	38.009743763821	3
4	29991	38.010091763821	1
4	30034	38.103628144809	3
4	30061	38.103976144809	1
4	30092	38.200069915062	3
4	30115	38.200417915062	1
4	30149	38.300057310518	3
4	30172	38.300405310518	1
4	30255	38.323750408073	3
4	30278	38.324098408073	1
4	30326	38.324538526652	3
[...]
240	55345	1	0
240	55345	1.1	0
240	55345	1.2	0
240	55345	1.3	0
240	55345	1.4	0
240	55345	1.5	0
240	55345	1.6	0
240	55345	1.7	0
240	55345	1.8	0
240	55345	1.9	0
240	55345	2	0
240	55345	2.1	0
240	55345	2.2	0
240	55345	2.3	0
240	55345	2.4	0
240	55345	2.5	0
240	55345	2.6	0
240	55345	2.7	0
240	55345	2.8	0
240	55345	2.9	0
240	55345	3	0
240	55345	3.1	0
240	55345	3.2	0
240	55345	3.3	0
240	55345	3.4	0
240	55345	3.5	0
240	55345	3.6	0
240	55345	3.7	0
240	55345	3.8	0
240	55345	3.9	0
240	55345	4	0
240	55345	4.1	0
240	55345	4.2	0
240	55345	4.3	0
240	55345	4.4	0
240	55345	4.5	0
240	55345	4.6	0
240	55345	4.7	0
240	55345	4.8	0
240	55345	4.9	0
240	55345	5	0
240	55345	5.1	0
240	55345	5.2	0
240	55345	5.3	0
240	55345	5.4	0
240	55345	5.5	0
240	55345	5.6	0
240	55345	5.7	0
240	55345	5.8	0
240	55345	5.9	0
240	55345	6	0
240	55345	6.1	0
240	55345	6.2	0
240	55345	6.3	0
240	55345	6.4	0
240	55345	6.5	0
240	55345	6.6	0
240	55345	6.7	0
240	55345	6.8	0
240	55345	6.9	0
240	55345	7	0
240	55345	7.1	0
240	55345	7.2	0
240	55345	7.3	0
240	55345	7.4	0
240	55345	7.5	0
240	55345	7.6	0
240	55345	7.7	0
240	55345	7.8	0
240	55345	7.9	0
240	55345	8	0
240	55345	8.1	0
240	55345	8.2	0
240	55345	8.3	0
240	55345	8.4	0
240	55345	8.5	0
240	55345	8.6	0
240	55345	8.7	0
240	55345	8.8	0
240	55345	8.9	0
240	55345	9	0
240	55345	9.1	0
240	55345	9.2	0
240	55345	9.3	0
240	55345	9.4	0
240	55345	9.5	0
240	55345	9.6	0
240	55345	9.7	0
240	55345	9.8	0
240	55345	9.9	0
240	55345	10	0
240	55345	10.1	0
240	55345	10.2	0
240	55345	10.3	0
240	55345	10.4	0
240	55345	10.5	0
240	55345	10.6	0
240	55345	10.7	0
240	55345	10.8	0
240	55345	10.9	0
240	55345	11	0
240	55345	11.1	0
240	55345	11.2	0
240	55345	11.3	0
240	55345	11.4	0
240	55345	11.5	0
240	55345	11.6	0
240	55345	11.7	0
240	55345	11.8	0
240	55345	11.9	0
240	55345	12	0
240	55345	12.1	0
240	55345	12.2	0
240	55345	12.3	0
240	55345	12.4	0
240	55345	12.5	0
240	55345	12.6	0
240	55345	12.7	0
240	55345	12.8	0
240	55345	12.9	0
240	55345	13	0
240	55345	13.1	0
240	55345	13.2	0
240	55345	13.3	0
240	55345	13.4	0
240	55345	13.5	0
240	55345	13.6	0
240	55345	13.7	0
240	55345	13.8	0
240	55345	13.9	0
240	55345	14	0
240	55345	14.1	0
240	55345	14.2	0
240	55345	14.3	0
240	55345	14.4	0
240	55345	14.5	0
240	55345	14.6	0
240	55345	14.7	0
240	55345	14.8	0
240	55345	14.9	0
240	55345	15	0
240	55345	15.1	0
240	55345	15.2	0
240	55345	15.3	0
240	55345	15.4	0
240	55345	15.5	0
240	55345	15.6	0
240	55345	15.7	0
240	55345	15.8	0
240	55345	15.9	0
240	55345	16	0
240	55345	16.1	0
240	55345	16.2	0
240	55345	16.3	0
240	55345	16.4	0
240	55345	16.5	0
240	55345	16.6	0
240	55345	16.7	0
240	55345	16.8	0
240	55345	16.9	0
240	55345	17	0
240	55345	17.1	0
240	55345	17.2	0
240	55345	17.3	0
240	55345	17.4	0
240	55345	17.5	0
240	55345	17.6	0
240	55345	17.7	0
240	55345	17.8	0
240	55345	17.9	0
240	55345	18	0
240	55345	18.1	0
240	55345	18.2	0
240	55345	18.3	0
240	55345	18.4	0
240	55345	18.5	0
240	55345	18.6	0
240	55345	18.7	0
240	55345	18.8	0
240	55345	18.9	0
240	55345	19	0
240	55345	19.1	0
240	55345	19.2	0
240	55345	19.3	0
240	55345	19.4	0
240	55345	19.5	0
240	55345	19.6	0
240	55345	19.7	0
240	55345	19.8	0
240	55345	19.9	0
240	55345	20	0
240	55345	20.1	0
240	55345	20.2	0
240	55345	20.3	0
240	55345	20.4	0
240	55345	20.5	0
240	55345	20.6	0
240	55345	20.7	0
240	55345	20.8	0
240	55345	20.9	0
240	55345	21	0
240	55345	21.1	0
240	55345	21.2	0
240	55345	21.3	0
240	55345	21.4	0
240	55345	21.5	0
240	55345	21.6	0
240	55345	21.7	0
240	55345	21.8	0
240	55345	21.9	0
240	55345	22	0
240	55345	22.1	0
240	55345	22.2	0
240	55345	22.3	0
240	55345	22.4	0
240	55345	22.5	0
240	55345	22.6	0
240	55345	22.7	0
240	55345	22.8	0
240	55345	22.9	0
240	55345	23	0
240	55345	23.1	0
240	55345	23.2	0
240	55345	23.3	0
240	55345	23.4	0
240	55345	23.5	0
240	55345	23.6	0
240	55345	23.7	0
240	55345	23.8	0
240	55345	23.9	0
240	55345	24	0
240	55345	24.1	0
240	55345	24.2	0
240	55345	24.3	0
240	55345	24.4	0
240	55345	24.5	0
240	55345	24.6	0
240	55345	24.7	0
240	55345	24.8	0
240	55345	24.9	0
240	55345	25	0
240	55345	25.1	0
240	55345	25.2	0
240	55345	25.3	0
240	55345	25.4	0
240	55345	25.5	0
240	55345	25.6	0
240	55345	25.7	0
240	55345	25.8	0
240	55345	25.9	0
240	55345	26	0
240	55345	26.1	0
240	55345	26.2	0
240	55345	26.3	0
240	55345	26.4	0
240	55345	26.5	0
240	55345	26.6	0
240	55345	26.7	0
240	55345	26.8	0
240	55345	26.9	0
240	55345	27	0
240	55345	27.1	0
240	55345	27.2	0
240	55345	27.3	0
240	55345	27.4	0
240	55345	27.5	0
240	55345	27.6	0
240	55345	27.7	0
240	55345	27.8	0
240	55345	27.9	0
240	55345	28	0
240	55345	28.1	0
240	55345	28.2	0
240	55345	28.3	0
240	55345	28.4	0
240	55345	28.5	0
240	55345	28.6	0
240	55345	28.7	0
240	55345	28.8	0
240	55345	28.9	0
240	55345	29	0
240	55345	29.1	0
240	55345	29.2	0
240	55345	29.3	0
240	55345	29.4	0
240	55345	29.5	0
240	55345	29.6	0
240	55345	29.7	0
240	55345	29.8	0
240	55345	29.9	0
240	55345	30	0
240	55345	30.1	0
240	55345	30.2	0
240	55345	30.3	0
240	55345	30.4	0
240	55345	30.5	0
240	55345	30.6	0
240	55345	30.7	0
240	55345	30.8	0
240	55345	30.9	0
240	55345	31	0
240	55345	31.1	0
240	55345	31.2	0
240	55345	31.3	0
240	55345	31.4	0
240	55345	31.5	0
240	55345	31.6	0
240	55345	31.7	0
240	55345	31.8	0
240	55345	31.9	0
240	55345	32	0
240	55345	32.1	0
240	55345	32.2	0
240	55345	32.3	0
240	55345	32.4	0
240	55345	32.5	0
240	55345	32.6	0
240	55345	32.7	0
240	55345	32.8	0
240	55345	32.9	0
240	55345	33	0
240	55345	33.1	0
240	55345	33.2	0
240	55345	33.3	0
240	55345	33.4	0
240	55345	33.5	0
240	55345	33.6	0
240	55345	33.7	0
240	55345	33.8	0
240	55345	33.9	0
240	55345	34	0
240	55345	34.1	0
240	55345	34.2	0
240	55345	34.3	0
240	55345	34.4	0
240	55345	34.5	0
240	55345	34.6	0
240	55345	34.7	0
240	55345	34.8	0
240	55345	34.9	0
240	55345	35	0
240	55345	35.1	0
240	55345	35.2	0
240	55345	35.3	0
240	55345	35.4	0
240	55345	35.5	0
240	55345	35.6	0
240	55345	35.7	0
240	55345	35.8	0
240	55345	35.9	0
240	55345	36	0
240	55345	36.1	0
240	55345	36.2	0
240	55345	36.3	0
240	55345	36.4	0
240	55345	36.5	0
240	55345	36.6	0
240	55345	36.7	0
240	55345	36.8	0
240	55345	36.9	0
240	55345	37	0
240	55345	37.1	0
240	55345	37.2	0
240	55345	37.3	0
240	55345	37.4	0
240	55345	37.5	0
240	55345	37.6	0
240	55345	37.7	0
240	55345	37.8	0
240	55345	37.9	0
240	55345	38	0
240	55345	38.1	0
240	55345	38.2	0
240	55345	38.3	0
240	55345	38.4	0
240	55345	38.5	0
240	55345	38.6	0
240	55345	38.7	0
240	55345	38.8	0
240	55345	38.9	0
240	55345	39	0
240	55345	39.1	0
240	55345	39.2	0
240	55345	39.3	0
240	55345	39.4	0
240	55345	39.5	0
240	55345	39.6	0
240	55345	39.7	0
240	55345	39.8	0
240	55345	39.9	0
240	55345	40	0
240	55345	40.1	0
240	55345	40.2	0
240	55345	40.3	0
240	55345	40.4	0
240	55345	40.5	0
240	55345	40.6	0
240	55345	40.7	0
240	55345	40.8	0
240	55345	40.9	0
240	55345	41	0
240	55345	41.1	0
240	55345	41.2	0
240	55345	41.3	0
240	55345	41.4	0
240	55345	41.5	0
240	55345	41.6	0
240	55345	41.7	0
240	55345	41.8	0
240	55345	41.9	0
240	55345	42	0
240	55345	42.1	0
240	55345	42.2	0
240	55345	42.3	0
240	55345	42.4	0
240	55345	42.5	0
240	55345	42.6	0
240	55345	42.7	0
240	55345	42.8	0
240	55345	42.9	0
240	55345	43	0
240	55345	43.1	0
240	55345	43.2	0
240	55345	43.3	0
240	55345	43.4	0
240	55345	43.5	0
240	55345	43.6	0
240	55345	43.7	0
240	55345	43.8	0
240	55345	43.9	0
240	55345	44	0
240	55345	44.1	0
240	55345	44.2	0
240	55345	44.3	0
240	55345	44.4	0
240	55345	44.5	0
240	55345	44.6	0
240	55345	44.7	0
240	55345	44.8	0
240	55345	44.9	0
240	55345	45	0
240	55345	45.1	0
240	55345	45.2	0
240	55345	45.3	0
240	55345	45.4	0
240	55345	45.5	0
240	55345	45.6	0
240	55345	45.7	0
240	55345	45.8	0
240	55345	45.9	0
240	55345	46	0
240	55345	46.1	0
240	55345	46.2	0
240	55345	46.3	0
240	55345	46.4	0
240	55345	46.5	0
240	55345	46.6	0
240	55345	46.7	0
240	55345	46.8	0
240	55345	46.9	0
240	55345	47	0
240	55345	47.1	0
240	55345	47.2	0
240	55345	47.3	0
240	55345	47.4	0
240	55345	47.5	0
240	55345	47.6	0
240	55345	47.7	0
240	55345	47.8	0
240	55345	47.9	0
240	55345	48	0
240	55345	48.1	0
240	55345	48.2	0
240	55345	48.3	0
240	55345	48.4	0
240	55345	48.5	0
240	55345	48.6	0
240	55345	48.7	0
240	55345	48.8	0
240	55345	48.9	0
240	55345	49	0
240	55345	49.1	0
240	55345	49.2	0
240	55345	49.3	0
240	55345	49.4	0
240	55345	49.5	0
240	55345	49.6	0
240	55345	49.7	0
240	55345	49.8	0
240	55345	49.9	0
240	55345	50	0
240	55345	50.1	0
240	55345	50.2	0
240	55345	50.3	0
240	55345	50.4	0
240	55345	50.5	0
240	55345	50.6	0
240	55345	50.7	0
240	55345	50.8	0
240	55345	50.9	0
240	55345	51	0
240	55345	51.1	0
240	55345	51.2	0
240	55345	51.3	0
240	55345	51.4	0
240	55345	51.5	0
240	55345	51.6	0
240	55345	51.7	0
240	55345	51.8	0
240	55345	51.9	0
240	55345	52	0
240	55345	52.1	0
240	55345	52.2	0
240	55345	52.3	0
240	55345	52.4	0
240	55345	52.5	0
240	55345	52.6	0
240	55345	52.7	0
240	55345	52.8	0
240	55345	52.9	0
240	55345	53	0
240	55345	53.1	0
240	55345	53.2	0
240	55345	53.3	0
240	55345	53.4	0
240	55345	53.5	0
240	55345	53.6	0
240	55345	53.7	0
240	55345	53.8	0
240	55345	53.9	0
240	55345	54	0
240	55345	54.1	0
240	55345	54.2	0
240	55345	54.3	0
240	55345	54.4	0
240	55345	54.5	0
240	55345	54.6	0
240	55345	54.7	0
240	55345	54.8	0
240	55345	54.9	0
240	55345	55	0
240	55345	55.1	0
240	55345	55.2	0
240	55345	55.3	0
240	55345	55.4	0
240	55345	55.5	0
240	55345	55.6	0
240	55345	55.7	0
240	55345	55.8	0
240	55345	55.9	0
240	55345	56	0
240	55345	56.1	0
240	55345	56.2	0
240	55345	56.3	0
240	55345	56.4	0
240	55345	56.5	0
240	55345	56.6	0
240	55345	56.7	0
240	55345	56.8	0
240	55345	56.9	0
240	55345	57	0
240	55345	57.1	0
240	55345	57.2	0
240	55345	57.3	0
240	55345	57.4	0
240	55345	57.5	0
240	55345	57.6	0
240	55345	57.7	0
240	55345	57.8	0
240	55345	57.9	0
240	55345	58	0
240	55345	58.1	0
240	55345	58.2	0
240	55345	58.3	0
240	55345	58.4	0
240	55345	58.5	0
240	55345	58.6	0
240	55345	58.7	0
240	55345	58.8	0
240	55345	58.9	0
240	55345	59	0
240	55345	59.1	0
240	55345	59.2	0
240	55345	59.3	0
240	55345	59.4	0
240	55345	59.5	0
240	55345	59.6	0
240	55345	59.7	0
240	55345	59.8	0
240	55345	59.9	0
240	55345	60	0
240	55345	60.1	0
240	55345	60.2	0
240	55345	60.3	0
240	55345	60.4	0
240	55345	60.5	0
241	55345	0.1	0
241	55345	0.2	0
241	55345	0.3	0
241	55345	0.4	0
241	55345	0.5	0
241	55345	0.6	0
241	55345	0.7	0
241	55345	0.8	0
241	55345	0.9	0
241	55345	1	0
241	55345	1.1	0
241	55345	1.2	0
241	55345	1.3	0
241	55345	1.4	0
241	55345	1.5	0
241	55345	1.6	0
241	55345	1.7	0
241	55345	1.8	0
241	55345	1.9	0
241	55345	2	0
241	55345	2.1	0
241	55345	2.2	0
241	55345	2.3	0
241	55345	2.4	0
241	55345	2.5	0
241	55345	2.6	0
241	55345	2.7	0
241	55345	2.8	0
241	55345	2.9	0
241	55345	3	0
241	55345	3.1	0
241	55345	3.2	0
241	55345	3.3	0
241	55345	3.4	0
241	55345	3.5	0
241	55345	3.6	0
241	55345	3.7	0
241	55345	3.8	0
241	55345	3.9	0
241	55345	4	0
241	55345	4.1	0
241	55345	4.2	0
241	55345	4.3	0
241	55345	4.4	0
241	55345	4.5	0
241	55345	4.6	0
241	55345	4.7	0
241	55345	4.8	0
241	55345	4.9	0
241	55345	5	0
241	55345	5.1	0
241	55345	5.2	0
241	55345	5.3	0
241	55345	5.4	0
241	55345	5.5	0
241	55345	5.6	0
241	55345	5.7	0
241	55345	5.8	0
241	55345	5.9	0
241	55345	6	0
241	55345	6.1	0
241	55345	6.2	0
241	55345	6.3	0
241	55345	6.4	0
241	55345	6.5	0
241	55345	6.6	0
241	55345	6.7	0
241	55345	6.8	0
241	55345	6.9	0
241	55345	7	0
241	55345	7.1	0
241	55345	7.2	0
241	55345	7.3	0
241	55345	7.4	0
241	55345	7.5	0
241	55345	7.6	0
241	55345	7.7	0
241	55345	7.8	0
241	55345	7.9	0
241	55345	8	0
241	55345	8.1	0
241	55345	8.2	0
241	55345	8.3	0
241	55345	8.4	0
241	55345	8.5	0
241	55345	8.6	0
241	55345	8.7	0
241	55345	8.8	0
241	55345	8.9	0
241	55345	9	0
241	55345	9.1	0
241	55345	9.2	0
241	55345	9.3	0
241	55345	9.4	0
241	55345	9.5	0
241	55345	9.6	0
241	55345	9.7	0
241	55345	9.8	0
241	55345	9.9	0
241	55345	10	0
241	55345	10.1	0
241	55345	10.2	0
241	55345	10.3	0
241	55345	10.4	0
241	55345	10.5	0
241	55345	10.6	0
241	55345	10.7	0
241	55345	10.8	0
241	55345	10.9	0
241	55345	11	0
241	55345	11.1	0
241	55345	11.2	0
241	55345	11.3	0
241	55345	11.4	0
241	55345	11.5	0
241	55345	11.6	0
241	55345	11.7	0
241	55345	11.8	0
241	55345	11.9	0
241	55345	12	0
241	55345	12.1	0
241	55345	12.2	0
241	55345	12.3	0
241	55345	12.4	0
241	55345	12.5	0
241	55345	12.6	0
241	55345	12.7	0
241	55345	12.8	0
241	55345	12.9	0
241	55345	13	0
241	55345	13.1	0
241	55345	13.2	0
241	55345	13.3	0
241	55345	13.4	0
241	55345	13.5	0
241	55345	13.6	0
241	55345	13.7	0
241	55345	13.8	0
241	55345	13.9	0
241	55345	14	0
241	55345	14.1	0
241	55345	14.2	0
241	55345	14.3	0
241	55345	14.4	0
241	55345	14.5	0
241	55345	14.6	0
241	55345	14.7	0
241	55345	14.8	0
241	55345	14.9	0
241	55345	15	0
241	55345	15.1	0
241	55345	15.2	0
241	55345	15.3	0
241	55345	15.4	0
241	55345	15.5	0
241	55345	15.6	0
241	55345	15.7	0
241	55345	15.8	0
241	55345	15.9	0
241	55345	16	0
241	55345	16.1	0
241	55345	16.2	0
241	55345	16.3	0
241	55345	16.4	0
241	55345	16.5	0
241	55345	16.6	0
241	55345	16.7	0
241	55345	16.8	0
241	55345	16.9	0
241	55345	17	0
241	55345	17.1	0
241	55345	17.2	0
241	55345	17.3	0
241	55345	17.4	0
241	55345	17.5	0
241	55345	17.6	0
241	55345	17.7	0
241	55345	17.8	0
241	55345	17.9	0
241	55345	18	0
241	55345	18.1	0
241	55345	18.2	0
241	55345	18.3	0
241	55345	18.4	0
241	55345	18.5	0
241	55345	18.6	0
241	55345	18.7	0
241	55345	18.8	0
241	55345	18.9	0
241	55345	19	0
241	55345	19.1	0
241	55345	19.2	0
241	55345	19.3	0
241	55345	19.4	0
241	55345	19.5	0
241	55345	19.6	0
241	55345	19.7	0
241	55345	19.8	0
241	55345	19.9	0
241	55345	20	0
241	55345	20.1	0
241	55345	20.2	0
241	55345	20.3	0
241	55345	20.4	0
241	55345	20.5	0
241	55345	20.6	0
241	55345	20.7	0
241	55345	20.8	0
241	55345	20.9	0
241	55345	21	0
241	55345	21.1	0
241	55345	21.2	0
241	55345	21.3	0
241	55345	21.4	0
241	55345	21.5	0
241	55345	21.6	0
241	55345	21.7	0
241	55345	21.8	0
241	55345	21.9	0
241	55345	22	0
241	55345	22.1	0
241	55345	22.2	0
241	55345	22.3	0
241	55345	22.4	0
241	55345	22.5	0
241	55345	22.6	0
241	55345	22.7	0
241	55345	22.8	0
241	55345	22.9	0
241	55345	23	0
241	55345	23.1	0
241	55345	23.2	0
241	55345	23.3	0
241	55345	23.4	0
241	55345	23.5	0
241	55345	23.6	0
241	55345	23.7	0
241	55345	23.8	0
241	55345	23.9	0
241	55345	24	0
241	55345	24.1	0
241	55345	24.2	0
241	55345	24.3	0
241	55345	24.4	0
241	55345	24.5	0
241	55345	24.6	0
241	55345	24.7	0
241	55345	24.8	0
241	55345	24.9	0
241	55345	25	0
241	55345	25.1	0
241	55345	25.2	0
241	55345	25.3	0
241	55345	25.4	0
241	55345	25.5	0
241	55345	25.6	0
241	55345	25.7	0
241	55345	25.8	0
241	55345	25.9	0
241	55345	26	0
241	55345	26.1	0
241	55345	26.2	0
241	55345	26.3	0
241	55345	26.4	0
241	55345	26.5	0
241	55345	26.6	0
241	55345	26.7	0
241	55345	26.8	0
241	55345	26.9	0
241	55345	27	0
241	55345	27.1	0
241	55345	27.2	0
241	55345	27.3	0
241	55345	27.4	0
241	55345	27.5	0
241	55345	27.6	0
241	55345	27.7	0
241	55345	27.8	0
241	55345	27.9	0
241	55345	28	0
241	55345	28.1	0
241	55345	28.2	0
241	55345	28.3	0
241	55345	28.4	0
241	55345	28.5	0
241	55345	28.6	0
241	55345	28.7	0
241	55345	28.8	0
241	55345	28.9	0
241	55345	29	0
241	55345	29.1	0
241	55345	29.2	0
241	55345	29.3	0
241	55345	29.4	0
241	55345	29.5	0
241	55345	29.6	0
241	55345	29.7	0
241	55345	29.8	0
241	55345	29.9	0
241	55345	30	0
241	55345	30.1	0
241	55345	30.2	0
241	55345	30.3	0
241	55345	30.4	0
241	55345	30.5	0
241	55345	30.6	0
241	55345	30.7	0
241	55345	30.8	0
241	55345	30.9	0
241	55345	31	0
241	55345	31.1	0
241	55345	31.2	0
241	55345	31.3	0
241	55345	31.4	0
241	55345	31.5	0
241	55345	31.6	0
241	55345	31.7	0
241	55345	31.8	0
241	55345	31.9	0
241	55345	32	0
241	55345	32.1	0
241	55345	32.2	0
241	55345	32.3	0
241	55345	32.4	0
241	55345	32.5	0
241	55345	32.6	0
241	55345	32.7	0
241	55345	32.8	0
241	55345	32.9	0
241	55345	33	0
241	55345	33.1	0
241	55345	33.2	0
241	55345	33.3	0
241	55345	33.4	0
241	55345	33.5	0
241	55345	33.6	0
241	55345	33.7	0
241	55345	33.8	0
241	55345	33.9	0
241	55345	34	0
241	55345	34.1	0
241	55345	34.2	0
241	55345	34.3	0
241	55345	34.4	0
241	55345	34.5	0
241	55345	34.6	0
241	55345	34.7	0
241	55345	34.8	0
241	55345	34.9	0
241	55345	35	0
241	55345	35.1	0
241	55345	35.2	0
241	55345	35.3	0
241	55345	35.4	0
241	55345	35.5	0
241	55345	35.6	0
241	55345	35.7	0
241	55345	35.8	0
241	55345	35.9	0
241	55345	36	0
241	55345	36.1	0
241	55345	36.2	0
241	55345	36.3	0
241	55345	36.4	0
241	55345	36.5	0
241	55345	36.6	0
241	55345	36.7	0
241	55345	36.8	0
241	55345	36.9	0
241	55345	37	0
241	55345	37.1	0
241	55345	37.2	0
241	55345	37.3	0
241	55345	37.4	0
241	55345	37.5	0
241	55345	37.6	0
241	55345	37.7	0
241	55345	37.8	0
241	55345	37.9	0
241	55345	38	0
241	55345	38.1	0
241	55345	38.2	0
241	55345	38.3	0
241	55345	38.4	0
241	55345	38.5	0
241	55345	38.6	0
241	55345	38.7	0
241	55345	38.8	0
241	55345	38.9	0
241	55345	39	0
241	55345	39.1	0
241	55345	39.2	0
241	55345	39.3	0
241	55345	39.4	0
241	55345	39.5	0
241	55345	39.6	0
241	55345	39.7	0
241	55345	39.8	0
241	55345	39.9	0
241	55345	40	0
241	55345	40.1	0
241	55345	40.2	0
241	55345	40.3	0
241	55345	40.4	0
241	55345	40.5	0
241	55345	40.6	0
241	55345	40.7	0
241	55345	40.8	0
241	55345	40.9	0
241	55345	41	0
241	55345	41.1	0
241	55345	41.2	0
241	55345	41.3	0
241	55345	41.4	0
241	55345	41.5	0
241	55345	41.6	0
241	55345	41.7	0
241	55345	41.8	0
241	55345	41.9	0
241	55345	42	0
241	55345	42.1	0
241	55345	42.2	0
241	55345	42.3	0
241	55345	42.4	0
241	55345	42.5	0
241	55345	42.6	0
241	55345	42.7	0
241	55345	42.8	0
241	55345	42.9	0
241	55345	43	0
241	55345	43.1	0
241	55345	43.2	0
241	55345	43.3	0
241	55345	43.4	0
241	55345	43.5	0
241	55345	43.6	0
241	55345	43.7	0
241	55345	43.8	0
241	55345	43.9	0
241	55345	44	0
241	55345	44.1	0
241	55345	44.2	0
241	55345	44.3	0
241	55345	44.4	0
241	55345	44.5	0
241	55345	44.6	0
241	55345	44.7	0
241	55345	44.8	0
241	55345	44.9	0
241	55345	45	0
241	55345	45.1	0
241	55345	45.2	0
241	55345	45.3	0
241	55345	45.4	0
241	55345	45.5	0
241	55345	45.6	0
241	55345	45.7	0
241	55345	45.8	0
241	55345	45.9	0
241	55345	46	0
241	55345	46.1	0
241	55345	46.2	0
241	55345	46.3	0
241	55345	46.4	0
241	55345	46.5	0
241	55345	46.6	0
241	55345	46.7	0
241	55345	46.8	0
241	55345	46.9	0
241	55345	47	0
241	55345	47.1	0
241	55345	47.2	0
241	55345	47.3	0
241	55345	47.4	0
241	55345	47.5	0
241	55345	47.6	0
241	55345	47.7	0
241	55345	47.8	0
241	55345	47.9	0
241	55345	48	0
241	55345	48.1	0
241	55345	48.2	0
241	55345	48.3	0
241	55345	48.4	0
241	55345	48.5	0
241	55345	48.6	0
241	55345	48.7	0
241	55345	48.8	0
241	55345	48.9	0
241	55345	49	0
241	55345	49.1	0
241	55345	49.2	0
241	55345	49.3	0
241	55345	49.4	0
241	55345	49.5	0
241	55345	49.6	0
241	55345	49.7	0
241	55345	49.8	0
241	55345	49.9	0
241	55345	50	0
241	55345	50.1	0
241	55345	50.2	0
241	55345	50.3	0
241	55345	50.4	0
241	55345	50.5	0
241	55345	50.6	0
241	55345	50.7	0
241	55345	50.8	0
241	55345	50.9	0
241	55345	51	0
241	55345	51.1	0
241	55345	51.2	0
241	55345	51.3	0
241	55345	51.4	0
241	55345	51.5	0
241	55345	51.6	0
241	55345	51.7	0
241	55345	51.8	0
241	55345	51.9	0
241	55345	52	0
241	55345	52.1	0
241	55345	52.2	0
241	55345	52.3	0
241	55345	52.4	0
241	55345	52.5	0
241	55345	52.6	0
241	55345	52.7	0
241	55345	52.8	0
241	55345	52.9	0
241	55345	53	0
241	55345	53.1	0
241	55345	53.2	0
241	55345	53.3	0
241	55345	53.4	0
241	55345	53.5	0
241	55345	53.6	0
241	55345	53.7	0
241	55345	53.8	0
241	55345	53.9	0
241	55345	54	0
241	55345	54.1	0
241	55345	54.2	0
241	55345	54.3	0
241	55345	54.4	0
241	55345	54.5	0
241	55345	54.6	0
241	55345	54.7	0
241	55345	54.8	0
241	55345	54.9	0
241	55345	55	0
241	55345	55.1	0
241	55345	55.2	0
241	55345	55.3	0
241	55345	55.4	0
241	55345	55.5	0
241	55345	55.6	0
241	55345	55.7	0
241	55345	55.8	0
241	55345	55.9	0
241	55345	56	0
241	55345	56.1	0
241	55345	56.2	0
241	55345	56.3	0
241	55345	56.4	0
241	55345	56.5	0
241	55345	56.6	0
241	55345	56.7	0
241	55345	56.8	0
241	55345	56.9	0
241	55345	57	0
241	55345	57.1	0
241	55345	57.2	0
241	55345	57.3	0
241	55345	57.4	0
241	55345	57.5	0
241	55345	57.6	0
241	55345	57.7	0
241	55345	57.8	0
241	55345	57.9	0
241	55345	58	0
241	55345	58.1	0
241	55345	58.2	0
241	55345	58.3	0
241	55345	58.4	0
241	55345	58.5	0
241	55345	58.6	0
241	55345	58.7	0
241	55345	58.8	0
241	55345	58.9	0
241	55345	59	0
241	55345	59.1	0
241	55345	59.2	0
241	55345	59.3	0
241	55345	59.4	0
241	55345	59.5	0
241	55345	59.6	0
241	55345	59.7	0
241	55345	59.8	0
241	55345	59.9	0
241	55345	60	0
241	55345	60.1	0
241	55345	60.2	0
241	55345	60.3	0
241	55345	60.4	0
241	55345	60.5	0

