version 2
run General-0-20230518-16:06:53-7274
attr configname General
attr datetime 20230518-16:06:53
attr experiment General
attr inifile omnetpp.ini
attr iterationvars ""
attr iterationvarsf ""
attr measurement ""
attr network Scenario
attr processid 7274
attr repetition 0
attr replication #0
attr resultdir results
attr runnumber 0
attr seedset 0
param *.*_car[*].ipv4.arp.typename "\"GlobalArp\""
param *.normal_car[1].numApps 1
param *.normal_car[1].app[0].typename "\"UdpBasicApp\""
param *.normal_car[1].app[0].destAddresses "\"normal_car[6]\""
param *.normal_car[1].app[0].localPort 5000
param *.normal_car[1].app[0].destPort 5000
param *.normal_car[1].app[0].messageLength 1024B
param *.normal_car[1].app[0].sendInterval 1s
param *.normal_car[1].app[0].startTime 20s
param *.normal_car[1].app[0].packetName "\"UDPData\""
param *.normal_car[*].numApps 1
param *.normal_car[*].app[0].typename "\"UdpSink\""
param *.normal_car[*].app[0].localPort 5000
param *.normal_car[*].routing.deletePeriod 5s
param *.*_car[*].wlan[*].typename "\"AckingWirelessInterface\""
param *.*_car[*].wlan[*].bitrate 2Mbps
param *.*_car[*].wlan[*].mac.headerLength 23B
param *.*_car[*].wlan[*].radio.typename "\"UnitDiskRadio\""
param *.*_car[*].wlan[*].radio.transmitter.headerLength 96b
param *.*_car[*].wlan[*].radio.transmitter.communicationRange 70m
param *.*_car[*].wlan[*].radio.transmitter.interferenceRange 0m
param *.*_car[*].wlan[*].radio.transmitter.detectionRange 0m
param *.*_car[*].wlan[*].radio.receiver.ignoreInterference true
param *.*_car[*].ipv4.configurator.typename "\"HostAutoConfigurator\""
param *.*_car[*].ipv4.configurator.interfaces "\"wlan0\""
param *.*_car[*].ipv4.configurator.mcastGroups "\"224.0.0.1\""
param *.*_car[*].mobility.typename "\"VeinsInetMobility\""
param *.manager.updateInterval 0.1s
param *.manager.launchConfig "xmldoc(\"arcavacatamap.launchd.xml\")"
param *.manager.moduleType "\"normal_car=networkprojectvanet.veins_inet.AodvCar *=networkprojectvanet.veins_inet.AodvCar\""
param *.manager.moduleDisplayString "\"normal_car='i=veins/node/car;is=vs' *='i=veins/node/car;is=vs'\""
param *.manager.moduleName "\"normal_car=normal_car *=normal_car\""
param *.*_car[*].wlan[0].radio.displayCommunicationRange true
param *.visualizer.networkRouteVisualizer.displayRoutes true

vector 0 Scenario.normal_car[0].wlan[0].radio radioMode:vector ETV
attr interpolationmode sample-hold
attr source radioModeChanged
attr title "Radio mode, vector"
vector 1 Scenario.normal_car[0].wlan[0].radio receptionState:vector ETV
attr interpolationmode sample-hold
attr source receptionStateChanged
attr title "Radio reception state, vector"
vector 2 Scenario.normal_car[0].wlan[0].radio transmissionState:vector ETV
attr interpolationmode sample-hold
attr source transmissionStateChanged
attr title "Radio transmission state, vector"
vector 3 Scenario.normal_car[1].wlan[0].radio radioMode:vector ETV
attr interpolationmode sample-hold
attr source radioModeChanged
attr title "Radio mode, vector"
vector 4 Scenario.normal_car[1].wlan[0].radio receptionState:vector ETV
attr interpolationmode sample-hold
attr source receptionStateChanged
attr title "Radio reception state, vector"
vector 5 Scenario.normal_car[1].wlan[0].radio transmissionState:vector ETV
attr interpolationmode sample-hold
attr source transmissionStateChanged
attr title "Radio transmission state, vector"
vector 6 Scenario.normal_car[2].wlan[0].radio radioMode:vector ETV
attr interpolationmode sample-hold
attr source radioModeChanged
attr title "Radio mode, vector"
vector 7 Scenario.normal_car[2].wlan[0].radio receptionState:vector ETV
attr interpolationmode sample-hold
attr source receptionStateChanged
attr title "Radio reception state, vector"
vector 8 Scenario.normal_car[2].wlan[0].radio transmissionState:vector ETV
attr interpolationmode sample-hold
attr source transmissionStateChanged
attr title "Radio transmission state, vector"
vector 9 Scenario.normal_car[3].wlan[0].radio radioMode:vector ETV
attr interpolationmode sample-hold
attr source radioModeChanged
attr title "Radio mode, vector"
vector 10 Scenario.normal_car[3].wlan[0].radio receptionState:vector ETV
attr interpolationmode sample-hold
attr source receptionStateChanged
attr title "Radio reception state, vector"
vector 11 Scenario.normal_car[3].wlan[0].radio transmissionState:vector ETV
attr interpolationmode sample-hold
attr source transmissionStateChanged
attr title "Radio transmission state, vector"
vector 12 Scenario.normal_car[4].wlan[0].radio radioMode:vector ETV
attr interpolationmode sample-hold
attr source radioModeChanged
attr title "Radio mode, vector"
vector 13 Scenario.normal_car[4].wlan[0].radio receptionState:vector ETV
attr interpolationmode sample-hold
attr source receptionStateChanged
attr title "Radio reception state, vector"
vector 14 Scenario.normal_car[4].wlan[0].radio transmissionState:vector ETV
attr interpolationmode sample-hold
attr source transmissionStateChanged
attr title "Radio transmission state, vector"
vector 15 Scenario.normal_car[5].wlan[0].radio radioMode:vector ETV
attr interpolationmode sample-hold
attr source radioModeChanged
attr title "Radio mode, vector"
vector 16 Scenario.normal_car[5].wlan[0].radio receptionState:vector ETV
attr interpolationmode sample-hold
attr source receptionStateChanged
attr title "Radio reception state, vector"
vector 17 Scenario.normal_car[5].wlan[0].radio transmissionState:vector ETV
attr interpolationmode sample-hold
attr source transmissionStateChanged
attr title "Radio transmission state, vector"
vector 18 Scenario.normal_car[6].wlan[0].radio radioMode:vector ETV
attr interpolationmode sample-hold
attr source radioModeChanged
attr title "Radio mode, vector"
vector 19 Scenario.normal_car[6].wlan[0].radio receptionState:vector ETV
attr interpolationmode sample-hold
attr source receptionStateChanged
attr title "Radio reception state, vector"
vector 20 Scenario.normal_car[6].wlan[0].radio transmissionState:vector ETV
attr interpolationmode sample-hold
attr source transmissionStateChanged
attr title "Radio transmission state, vector"
vector 21 Scenario.normal_car[7].wlan[0].radio radioMode:vector ETV
attr interpolationmode sample-hold
attr source radioModeChanged
attr title "Radio mode, vector"
vector 22 Scenario.normal_car[7].wlan[0].radio receptionState:vector ETV
attr interpolationmode sample-hold
attr source receptionStateChanged
attr title "Radio reception state, vector"
vector 23 Scenario.normal_car[7].wlan[0].radio transmissionState:vector ETV
attr interpolationmode sample-hold
attr source transmissionStateChanged
attr title "Radio transmission state, vector"
vector 24 Scenario.normal_car[8].wlan[0].radio radioMode:vector ETV
attr interpolationmode sample-hold
attr source radioModeChanged
attr title "Radio mode, vector"
vector 25 Scenario.normal_car[8].wlan[0].radio receptionState:vector ETV
attr interpolationmode sample-hold
attr source receptionStateChanged
attr title "Radio reception state, vector"
vector 26 Scenario.normal_car[8].wlan[0].radio transmissionState:vector ETV
attr interpolationmode sample-hold
attr source transmissionStateChanged
attr title "Radio transmission state, vector"
vector 27 Scenario.normal_car[9].wlan[0].radio radioMode:vector ETV
attr interpolationmode sample-hold
attr source radioModeChanged
attr title "Radio mode, vector"
vector 28 Scenario.normal_car[9].wlan[0].radio receptionState:vector ETV
attr interpolationmode sample-hold
attr source receptionStateChanged
attr title "Radio reception state, vector"
vector 29 Scenario.normal_car[9].wlan[0].radio transmissionState:vector ETV
attr interpolationmode sample-hold
attr source transmissionStateChanged
attr title "Radio transmission state, vector"
vector 30 Scenario.normal_car[10].wlan[0].radio radioMode:vector ETV
attr interpolationmode sample-hold
attr source radioModeChanged
attr title "Radio mode, vector"
vector 31 Scenario.normal_car[10].wlan[0].radio receptionState:vector ETV
attr interpolationmode sample-hold
attr source receptionStateChanged
attr title "Radio reception state, vector"
vector 32 Scenario.normal_car[10].wlan[0].radio transmissionState:vector ETV
attr interpolationmode sample-hold
attr source transmissionStateChanged
attr title "Radio transmission state, vector"
vector 33 Scenario.normal_car[11].wlan[0].radio radioMode:vector ETV
attr interpolationmode sample-hold
attr source radioModeChanged
attr title "Radio mode, vector"
vector 34 Scenario.normal_car[11].wlan[0].radio receptionState:vector ETV
attr interpolationmode sample-hold
attr source receptionStateChanged
attr title "Radio reception state, vector"
vector 35 Scenario.normal_car[11].wlan[0].radio transmissionState:vector ETV
attr interpolationmode sample-hold
attr source transmissionStateChanged
attr title "Radio transmission state, vector"
vector 36 Scenario.normal_car[1].app[0] packetSent:vector(packetBytes) ETV
attr interpolationmode none
attr source packetSent
attr title "packets sent, vector(packetBytes)"
vector 37 Scenario.normal_car[1].udp packetSent:vector(packetBytes) ETV
attr interpolationmode none
attr source packetSent
attr title "packets sent, vector(packetBytes)"
vector 38 Scenario.normal_car[1].wlan[0].mac rcvdPkFromHl:vector(packetBytes) ETV
attr interpolationmode none
attr source packetReceivedFromUpper
attr title "packets received from higher layer, vector(packetBytes)"
vector 39 Scenario.normal_car[1].wlan[0].mac.queue packetPushed:vector(packetBytes) ETV
attr interpolationmode none
attr title "packet pushed, vector(packetBytes)"
vector 40 Scenario.normal_car[1].wlan[0].mac.queue queueLength:vector ETV
attr interpolationmode sample-hold
attr source "count(packetPushed) - count(packetPopped) - count(packetRemoved) - count(packetDropped)"
attr title "queue length, vector"
vector 41 Scenario.normal_car[1].wlan[0].mac.queue packetPopped:vector(packetBytes) ETV
attr interpolationmode none
attr title "packet popped, vector(packetBytes)"
vector 42 Scenario.normal_car[1].wlan[0].mac.queue queueingTime:vector ETV
attr interpolationmode none
attr source queueingTime(packetPopped)
attr title "queueing times, vector"
attr unit s
vector 43 Scenario.normal_car[1].wlan[0].mac sentDownPk:vector(packetBytes) ETV
attr interpolationmode none
attr source packetSentToLower
attr title "packets sent to lower layer, vector(packetBytes)"
vector 44 Scenario.normal_car[2].wlan[0].mac rcvdPkFromLl:vector(packetBytes) ETV
attr interpolationmode none
attr source packetReceivedFromLower
attr title "packets received from lower layer, vector(packetBytes)"
vector 45 Scenario.normal_car[2].wlan[0].mac passedUpPk:vector(packetBytes) ETV
attr interpolationmode none
attr source packetSentToUpper
attr title "packets passed to higher layer, vector(packetBytes)"
vector 46 Scenario.normal_car[2].udp packetReceived:vector(packetBytes) ETV
attr interpolationmode none
attr source packetReceived
attr title "packets received, vector(packetBytes)"
vector 47 Scenario.normal_car[2].udp passedUpPk:vector(count) ETV
attr interpolationmode none
attr source packetSentToUpper
attr title "packets passed up, vector(count)"
vector 48 Scenario.normal_car[2].udp packetSent:vector(packetBytes) ETV
attr interpolationmode none
attr source packetSent
attr title "packets sent, vector(packetBytes)"
vector 49 Scenario.normal_car[2].wlan[0].mac rcvdPkFromHl:vector(packetBytes) ETV
attr interpolationmode none
attr source packetReceivedFromUpper
attr title "packets received from higher layer, vector(packetBytes)"
vector 50 Scenario.normal_car[2].wlan[0].mac.queue packetPushed:vector(packetBytes) ETV
attr interpolationmode none
attr title "packet pushed, vector(packetBytes)"
vector 51 Scenario.normal_car[2].wlan[0].mac.queue queueLength:vector ETV
attr interpolationmode sample-hold
attr source "count(packetPushed) - count(packetPopped) - count(packetRemoved) - count(packetDropped)"
attr title "queue length, vector"
vector 52 Scenario.normal_car[2].wlan[0].mac.queue packetPopped:vector(packetBytes) ETV
attr interpolationmode none
attr title "packet popped, vector(packetBytes)"
vector 53 Scenario.normal_car[2].wlan[0].mac.queue queueingTime:vector ETV
attr interpolationmode none
attr source queueingTime(packetPopped)
attr title "queueing times, vector"
attr unit s
vector 54 Scenario.normal_car[2].wlan[0].mac sentDownPk:vector(packetBytes) ETV
attr interpolationmode none
attr source packetSentToLower
attr title "packets sent to lower layer, vector(packetBytes)"
vector 55 Scenario.normal_car[1].wlan[0].mac rcvdPkFromLl:vector(packetBytes) ETV
attr interpolationmode none
attr source packetReceivedFromLower
attr title "packets received from lower layer, vector(packetBytes)"
vector 56 Scenario.normal_car[1].wlan[0].mac passedUpPk:vector(packetBytes) ETV
attr interpolationmode none
attr source packetSentToUpper
attr title "packets passed to higher layer, vector(packetBytes)"
vector 57 Scenario.normal_car[1].udp packetReceived:vector(packetBytes) ETV
attr interpolationmode none
attr source packetReceived
attr title "packets received, vector(packetBytes)"
vector 58 Scenario.normal_car[1].udp passedUpPk:vector(count) ETV
attr interpolationmode none
attr source packetSentToUpper
attr title "packets passed up, vector(count)"
vector 59 Scenario.normal_car[4].wlan[0].mac rcvdPkFromLl:vector(packetBytes) ETV
attr interpolationmode none
attr source packetReceivedFromLower
attr title "packets received from lower layer, vector(packetBytes)"
vector 60 Scenario.normal_car[4].wlan[0].mac passedUpPk:vector(packetBytes) ETV
attr interpolationmode none
attr source packetSentToUpper
attr title "packets passed to higher layer, vector(packetBytes)"
vector 61 Scenario.normal_car[4].udp packetReceived:vector(packetBytes) ETV
attr interpolationmode none
attr source packetReceived
attr title "packets received, vector(packetBytes)"
vector 62 Scenario.normal_car[4].udp passedUpPk:vector(count) ETV
attr interpolationmode none
attr source packetSentToUpper
attr title "packets passed up, vector(count)"
vector 63 Scenario.normal_car[4].udp packetSent:vector(packetBytes) ETV
attr interpolationmode none
attr source packetSent
attr title "packets sent, vector(packetBytes)"
vector 64 Scenario.normal_car[4].wlan[0].mac rcvdPkFromHl:vector(packetBytes) ETV
attr interpolationmode none
attr source packetReceivedFromUpper
attr title "packets received from higher layer, vector(packetBytes)"
vector 65 Scenario.normal_car[4].wlan[0].mac.queue packetPushed:vector(packetBytes) ETV
attr interpolationmode none
attr title "packet pushed, vector(packetBytes)"
vector 66 Scenario.normal_car[4].wlan[0].mac.queue queueLength:vector ETV
attr interpolationmode sample-hold
attr source "count(packetPushed) - count(packetPopped) - count(packetRemoved) - count(packetDropped)"
attr title "queue length, vector"
vector 67 Scenario.normal_car[4].wlan[0].mac.queue packetPopped:vector(packetBytes) ETV
attr interpolationmode none
attr title "packet popped, vector(packetBytes)"
vector 68 Scenario.normal_car[4].wlan[0].mac.queue queueingTime:vector ETV
attr interpolationmode none
attr source queueingTime(packetPopped)
attr title "queueing times, vector"
attr unit s
vector 69 Scenario.normal_car[4].wlan[0].mac sentDownPk:vector(packetBytes) ETV
attr interpolationmode none
attr source packetSentToLower
attr title "packets sent to lower layer, vector(packetBytes)"
vector 70 Scenario.normal_car[6].wlan[0].mac rcvdPkFromLl:vector(packetBytes) ETV
attr interpolationmode none
attr source packetReceivedFromLower
attr title "packets received from lower layer, vector(packetBytes)"
vector 71 Scenario.normal_car[6].wlan[0].mac passedUpPk:vector(packetBytes) ETV
attr interpolationmode none
attr source packetSentToUpper
attr title "packets passed to higher layer, vector(packetBytes)"
vector 72 Scenario.normal_car[6].udp packetReceived:vector(packetBytes) ETV
attr interpolationmode none
attr source packetReceived
attr title "packets received, vector(packetBytes)"
vector 73 Scenario.normal_car[6].udp passedUpPk:vector(count) ETV
attr interpolationmode none
attr source packetSentToUpper
attr title "packets passed up, vector(count)"
vector 74 Scenario.normal_car[6].udp packetSent:vector(packetBytes) ETV
attr interpolationmode none
attr source packetSent
attr title "packets sent, vector(packetBytes)"
vector 75 Scenario.normal_car[6].wlan[0].mac rcvdPkFromHl:vector(packetBytes) ETV
attr interpolationmode none
attr source packetReceivedFromUpper
attr title "packets received from higher layer, vector(packetBytes)"
vector 76 Scenario.normal_car[6].wlan[0].mac.queue packetPushed:vector(packetBytes) ETV
attr interpolationmode none
attr title "packet pushed, vector(packetBytes)"
vector 77 Scenario.normal_car[6].wlan[0].mac.queue queueLength:vector ETV
attr interpolationmode sample-hold
attr source "count(packetPushed) - count(packetPopped) - count(packetRemoved) - count(packetDropped)"
attr title "queue length, vector"
vector 78 Scenario.normal_car[6].wlan[0].mac.queue packetPopped:vector(packetBytes) ETV
attr interpolationmode none
attr title "packet popped, vector(packetBytes)"
vector 79 Scenario.normal_car[6].wlan[0].mac.queue queueingTime:vector ETV
attr interpolationmode none
attr source queueingTime(packetPopped)
attr title "queueing times, vector"
attr unit s
vector 80 Scenario.normal_car[6].wlan[0].mac sentDownPk:vector(packetBytes) ETV
attr interpolationmode none
attr source packetSentToLower
attr title "packets sent to lower layer, vector(packetBytes)"
vector 81 Scenario.normal_car[8].wlan[0].mac rcvdPkFromLl:vector(packetBytes) ETV
attr interpolationmode none
attr source packetReceivedFromLower
attr title "packets received from lower layer, vector(packetBytes)"
vector 82 Scenario.normal_car[8].wlan[0].mac packetDropNotAddressedToUs:vector(packetBytes) ETV
attr interpolationmode none
attr source packetDropReasonIsNotAddressedToUs(packetDropped)
attr title "packet drop: not addressed to us, vector(packetBytes)"
vector 83 Scenario.normal_car[6].wlan[0].mac packetDropNotAddressedToUs:vector(packetBytes) ETV
attr interpolationmode none
attr source packetDropReasonIsNotAddressedToUs(packetDropped)
attr title "packet drop: not addressed to us, vector(packetBytes)"
vector 84 Scenario.normal_car[4].wlan[0].mac packetDropNotAddressedToUs:vector(packetBytes) ETV
attr interpolationmode none
attr source packetDropReasonIsNotAddressedToUs(packetDropped)
attr title "packet drop: not addressed to us, vector(packetBytes)"
vector 85 Scenario.normal_car[1].wlan[0].mac packetDropNotAddressedToUs:vector(packetBytes) ETV
attr interpolationmode none
attr source packetDropReasonIsNotAddressedToUs(packetDropped)
attr title "packet drop: not addressed to us, vector(packetBytes)"
vector 86 Scenario.normal_car[6].app[0] packetReceived:vector(packetBytes) ETV
attr interpolationmode none
attr source packetReceived
attr title "packets received, vector(packetBytes)"
vector 87 Scenario.normal_car[6].app[0] throughput:vector ETV
attr source throughput(packetReceived)
attr title "throughput, vector"
attr unit bps
vector 88 Scenario.normal_car[6].app[0] endToEndDelay:vector ETV
attr interpolationmode none
attr source dataAge(packetReceived)
attr title "end-to-end delay, vector"
attr unit s
vector 89 Scenario.normal_car[6].app[0] rcvdPkSeqNo:vector ETV
attr interpolationmode none
attr source appPkSeqNo(packetReceived)
attr title "received packet sequence number, vector"
vector 90 Scenario.normal_car[2].wlan[0].mac packetDropNotAddressedToUs:vector(packetBytes) ETV
attr interpolationmode none
attr source packetDropReasonIsNotAddressedToUs(packetDropped)
attr title "packet drop: not addressed to us, vector(packetBytes)"
vector 91 Scenario.normal_car[12].wlan[0].radio radioMode:vector ETV
attr interpolationmode sample-hold
attr source radioModeChanged
attr title "Radio mode, vector"
vector 92 Scenario.normal_car[12].wlan[0].radio receptionState:vector ETV
attr interpolationmode sample-hold
attr source receptionStateChanged
attr title "Radio reception state, vector"
vector 93 Scenario.normal_car[12].wlan[0].radio transmissionState:vector ETV
attr interpolationmode sample-hold
attr source transmissionStateChanged
attr title "Radio transmission state, vector"
vector 94 Scenario.normal_car[13].wlan[0].radio radioMode:vector ETV
attr interpolationmode sample-hold
attr source radioModeChanged
attr title "Radio mode, vector"
vector 95 Scenario.normal_car[13].wlan[0].radio receptionState:vector ETV
attr interpolationmode sample-hold
attr source receptionStateChanged
attr title "Radio reception state, vector"
vector 96 Scenario.normal_car[13].wlan[0].radio transmissionState:vector ETV
attr interpolationmode sample-hold
attr source transmissionStateChanged
attr title "Radio transmission state, vector"
vector 97 Scenario.normal_car[14].wlan[0].radio radioMode:vector ETV
attr interpolationmode sample-hold
attr source radioModeChanged
attr title "Radio mode, vector"
vector 98 Scenario.normal_car[14].wlan[0].radio receptionState:vector ETV
attr interpolationmode sample-hold
attr source receptionStateChanged
attr title "Radio reception state, vector"
vector 99 Scenario.normal_car[14].wlan[0].radio transmissionState:vector ETV
attr interpolationmode sample-hold
attr source transmissionStateChanged
attr title "Radio transmission state, vector"
vector 100 Scenario.normal_car[0].wlan[0].mac rcvdPkFromLl:vector(packetBytes) ETV
attr interpolationmode none
attr source packetReceivedFromLower
attr title "packets received from lower layer, vector(packetBytes)"
vector 101 Scenario.normal_car[0].wlan[0].mac packetDropNotAddressedToUs:vector(packetBytes) ETV
attr interpolationmode none
attr source packetDropReasonIsNotAddressedToUs(packetDropped)
attr title "packet drop: not addressed to us, vector(packetBytes)"
vector 102 Scenario.normal_car[3].wlan[0].mac rcvdPkFromLl:vector(packetBytes) ETV
attr interpolationmode none
attr source packetReceivedFromLower
attr title "packets received from lower layer, vector(packetBytes)"
vector 103 Scenario.normal_car[3].wlan[0].mac packetDropNotAddressedToUs:vector(packetBytes) ETV
attr interpolationmode none
attr source packetDropReasonIsNotAddressedToUs(packetDropped)
attr title "packet drop: not addressed to us, vector(packetBytes)"
vector 104 Scenario.normal_car[5].wlan[0].mac rcvdPkFromLl:vector(packetBytes) ETV
attr interpolationmode none
attr source packetReceivedFromLower
attr title "packets received from lower layer, vector(packetBytes)"
vector 105 Scenario.normal_car[5].wlan[0].mac packetDropNotAddressedToUs:vector(packetBytes) ETV
attr interpolationmode none
attr source packetDropReasonIsNotAddressedToUs(packetDropped)
attr title "packet drop: not addressed to us, vector(packetBytes)"
vector 106 Scenario.normal_car[7].wlan[0].mac rcvdPkFromLl:vector(packetBytes) ETV
attr interpolationmode none
attr source packetReceivedFromLower
attr title "packets received from lower layer, vector(packetBytes)"
vector 107 Scenario.normal_car[7].wlan[0].mac packetDropNotAddressedToUs:vector(packetBytes) ETV
attr interpolationmode none
attr source packetDropReasonIsNotAddressedToUs(packetDropped)
attr title "packet drop: not addressed to us, vector(packetBytes)"
vector 108 Scenario.normal_car[9].wlan[0].mac rcvdPkFromLl:vector(packetBytes) ETV
attr interpolationmode none
attr source packetReceivedFromLower
attr title "packets received from lower layer, vector(packetBytes)"
vector 109 Scenario.normal_car[9].wlan[0].mac packetDropNotAddressedToUs:vector(packetBytes) ETV
attr interpolationmode none
attr source packetDropReasonIsNotAddressedToUs(packetDropped)
attr title "packet drop: not addressed to us, vector(packetBytes)"
vector 110 Scenario.normal_car[11].wlan[0].mac rcvdPkFromLl:vector(packetBytes) ETV
attr interpolationmode none
attr source packetReceivedFromLower
attr title "packets received from lower layer, vector(packetBytes)"
vector 111 Scenario.normal_car[11].wlan[0].mac packetDropNotAddressedToUs:vector(packetBytes) ETV
attr interpolationmode none
attr source packetDropReasonIsNotAddressedToUs(packetDropped)
attr title "packet drop: not addressed to us, vector(packetBytes)"
vector 112 Scenario.normal_car[12].wlan[0].mac rcvdPkFromLl:vector(packetBytes) ETV
attr interpolationmode none
attr source packetReceivedFromLower
attr title "packets received from lower layer, vector(packetBytes)"
vector 113 Scenario.normal_car[12].wlan[0].mac packetDropNotAddressedToUs:vector(packetBytes) ETV
attr interpolationmode none
attr source packetDropReasonIsNotAddressedToUs(packetDropped)
attr title "packet drop: not addressed to us, vector(packetBytes)"
vector 114 Scenario.normal_car[0].app[0] throughput:vector ETV
attr source throughput(packetReceived)
attr title "throughput, vector"
attr unit bps
vector 115 Scenario.normal_car[1].app[0] throughput:vector ETV
attr source throughput(packetReceived)
attr title "throughput, vector"
attr unit bps
vector 116 Scenario.normal_car[2].app[0] throughput:vector ETV
attr source throughput(packetReceived)
attr title "throughput, vector"
attr unit bps
vector 117 Scenario.normal_car[3].app[0] throughput:vector ETV
attr source throughput(packetReceived)
attr title "throughput, vector"
attr unit bps
vector 118 Scenario.normal_car[4].app[0] throughput:vector ETV
attr source throughput(packetReceived)
attr title "throughput, vector"
attr unit bps
vector 119 Scenario.normal_car[5].app[0] throughput:vector ETV
attr source throughput(packetReceived)
attr title "throughput, vector"
attr unit bps
vector 120 Scenario.normal_car[7].app[0] throughput:vector ETV
attr source throughput(packetReceived)
attr title "throughput, vector"
attr unit bps
vector 121 Scenario.normal_car[8].app[0] throughput:vector ETV
attr source throughput(packetReceived)
attr title "throughput, vector"
attr unit bps
vector 122 Scenario.normal_car[9].app[0] throughput:vector ETV
attr source throughput(packetReceived)
attr title "throughput, vector"
attr unit bps
vector 123 Scenario.normal_car[10].app[0] throughput:vector ETV
attr source throughput(packetReceived)
attr title "throughput, vector"
attr unit bps
vector 124 Scenario.normal_car[11].app[0] throughput:vector ETV
attr source throughput(packetReceived)
attr title "throughput, vector"
attr unit bps
vector 125 Scenario.normal_car[12].app[0] throughput:vector ETV
attr source throughput(packetReceived)
attr title "throughput, vector"
attr unit bps
vector 126 Scenario.normal_car[13].app[0] throughput:vector ETV
attr source throughput(packetReceived)
attr title "throughput, vector"
attr unit bps
vector 127 Scenario.normal_car[14].app[0] throughput:vector ETV
attr source throughput(packetReceived)
attr title "throughput, vector"
attr unit bps
0	2	0.1	0
0	2	0.1	0
0	2	0.1	4
1	2	0.1	1
1	1812	29.00000015152	3
1	1827	29.00434815152	1
1	1950	30.00000005978	3
1	1965	30.00434805978	1
1	1979	30.004348381055	3
1	2007	30.008696381055	1
1	2089	31.000000035772	3
1	2104	31.004348035772	1
1	2116	31.0043483066	3
1	2145	31.0086963066	1
1	2230	32.000000127564	3
1	2246	32.004348127564	1
1	2256	32.004348222215	3
1	2281	32.008696222215	1
1	2295	32.00869651959	3
1	2324	32.01304451959	1
1	2374	33.000000218744	3
1	2395	33.004348218744	1
1	2397	33.004348224229	3
1	2422	33.008696224229	1
1	2436	33.008696474936	3
1	2464	33.013044474936	1
1	2543	34.004348312894	3
1	2568	34.008696312894	1
1	2579	34.00869641457	3
1	2603	34.01304441457	1
1	2691	35.004348396613	3
1	2721	35.008696396613	1
1	2723	35.008696405962	3
1	2747	35.013044405962	1
1	2870	36.008696484967	3
1	2894	36.013044484967	1
1	3017	37.008696560859	3
1	3044	37.013044560859	1
2	2	0.1	1
3	2	0.1	0
3	2	0.1	0
3	2	0.1	4
4	2	0.1	1
4	421	20.006888486371	3
4	433	20.007236486371	1
4	499	20.327583453708	3
4	511	20.327931453708	1
4	638	20.340194540534	3
4	650	20.340526540534	1
4	687	20.34487484867	3
4	710	20.34922284867	1
4	795	21.004348275428	3
4	817	21.008696275428	1
4	908	22.004348226052	3
4	930	22.008696226052	1
4	1033	23.00434820921	3
4	1059	23.00869620921	1
4	1164	24.004348195558	3
4	1190	24.008696195558	1
4	1291	25.004348204946	3
4	1318	25.008696204946	1
4	1328	25.008696459134	3
4	1357	25.013044459134	1
4	1426	26.004348233222	3
4	1455	26.008696233222	1
4	1461	26.008696443267	3
4	1490	26.013044443267	1
4	1562	27.004348240974	3
4	1593	27.008696240974	1
4	1598	27.008696440734	3
4	1629	27.013044440734	1
4	1700	28.00434827753	3
4	1730	28.00869627753	1
4	1836	29.004348311396	3
4	1867	29.008696311396	1
4	1976	30.004348329552	3
4	2005	30.008696329552	1
4	2117	31.004348342306	3
4	2147	31.008696342306	1
4	2259	32.004348349776	3
4	2288	32.008696349776	1
4	2402	33.00434835309	3
4	2432	33.00869635309	1
4	2544	34.004348353116	3
4	2570	34.008696353116	1
4	2687	35.00434835019	3
4	2714	35.00869635019	1
4	2833	36.004348346058	3
4	2859	36.008696346058	1
4	2976	37.004348345182	3
4	3002	37.008696345182	1
4	3120	38.004348345802	3
4	3146	38.008696345802	1
4	3263	39.004348349798	3
4	3289	39.008696349798	1
4	3408	40.004348353126	3
4	3435	40.008696353126	1
4	3549	41.004348354188	3
4	3576	41.008696354188	1
4	3691	42.004348354252	3
4	3719	42.008696354252	1
4	3833	43.004348354386	3
4	3861	43.008696354386	1
4	3971	44.004348354332	3
4	3999	44.008696354332	1
4	4112	45.004348354296	3
4	4140	45.008696354296	1
4	4248	46.004348353854	3
4	4276	46.008696353854	1
4	4387	47.004348353236	3
4	4415	47.008696353236	1
4	4523	48.004348348094	3
4	4551	48.008696348094	1
4	4659	49.004348342008	3
4	4687	49.008696342008	1
4	4795	50.004348342042	3
4	4823	50.008696342042	1
4	4929	51.004348349912	3
4	4957	51.008696349912	1
4	5065	52.004348353868	3
4	5093	52.008696353868	1
4	5200	53.004348354294	3
4	5228	53.008696354294	1
4	5335	54.00434835428	3
4	5363	54.00869635428	1
4	5471	55.004348354076	3
4	5499	55.008696354076	1
4	5606	56.004348354004	3
4	5634	56.008696354004	1
4	5741	57.00434835252	3
4	5769	57.00869635252	1
4	5877	58.004348343946	3
4	5905	58.008696343946	1
4	6011	59.00434833026	3
4	6039	59.00869633026	1
4	6148	60.00434833259	3
4	6176	60.00869633259	1
5	2	0.1	1
5	388	20.002964223082	2
5	400	20.003312223082	1
5	466	20.32422132872	2
5	478	20.32456932872	1
5	656	20.340526540534	2
5	681	20.344874540534	1
5	777	21	2
5	789	21.004348	1
5	890	22	2
5	902	22.004348	1
5	1013	23	2
5	1027	23.004348	1
5	1144	24	2
5	1158	24.004348	1
5	1271	25	2
5	1285	25.004348	1
5	1402	26	2
5	1416	26.004348	1
5	1538	27	2
5	1553	27.004348	1
5	1675	28	2
5	1690	28.004348	1
5	1811	29	2
5	1826	29.004348	1
5	1949	30	2
5	1964	30.004348	1
5	2088	31	2
5	2103	31.004348	1
5	2228	32	2
5	2243	32.004348	1
5	2370	33	2
5	2385	33.004348	1
5	2513	34	2
5	2528	34.004348	1
5	2657	35	2
5	2672	35.004348	1
5	2802	36	2
5	2817	36.004348	1
5	2947	37	2
5	2962	37.004348	1
5	3090	38	2
5	3105	38.004348	1
5	3233	39	2
5	3248	39.004348	1
5	3377	40	2
5	3392	40.004348	1
5	3520	41	2
5	3535	41.004348	1
5	3664	42	2
5	3679	42.004348	1
5	3806	43	2
5	3821	43.004348	1
5	3947	44	2
5	3962	44.004348	1
5	4088	45	2
5	4103	45.004348	1
5	4227	46	2
5	4242	46.004348	1
5	4365	47	2
5	4380	47.004348	1
5	4502	48	2
5	4517	48.004348	1
5	4638	49	2
5	4653	49.004348	1
5	4773	50	2
5	4788	50.004348	1
5	4908	51	2
5	4923	51.004348	1
5	5044	52	2
5	5059	52.004348	1
5	5178	53	2
5	5193	53.004348	1
5	5314	54	2
5	5329	54.004348	1
5	5449	55	2
5	5464	55.004348	1
5	5585	56	2
5	5600	56.004348	1
5	5719	57	2
5	5734	57.004348	1
5	5856	58	2
5	5871	58.004348	1
5	5990	59	2
5	6005	59.004348	1
5	6126	60	2
5	6141	60.004348	1
6	52	3.8	0
6	52	3.8	0
6	52	3.8	4
7	52	3.8	1
7	389	20.002964381314	3
7	401	20.003312381314	1
7	467	20.324221482788	3
7	479	20.324569482788	1
7	536	20.332221372341	3
7	556	20.332569372341	1
7	605	20.33562612778	3
7	618	20.33595812778	1
7	659	20.340526694602	3
7	682	20.344874694602	1
7	719	20.349223039204	3
7	744	20.353571039204	1
7	778	21.000000137714	3
7	790	21.004348137714	1
7	826	21.00869648225	3
7	850	21.01304448225	1
7	891	22.000000113026	3
7	903	22.004348113026	1
7	937	22.008696453182	3
7	958	22.013044453182	1
7	1014	23.000000104605	3
7	1028	23.004348104605	1
7	1066	23.008696437029	3
7	1091	23.013044437029	1
7	1145	24.000000097779	3
7	1159	24.004348097779	1
7	1197	24.008696401007	3
7	1222	24.013044401007	1
7	1272	25.000000102473	3
7	1286	25.004348102473	1
7	1325	25.008696356809	3
7	1350	25.013044356809	1
7	1403	26.000000116611	3
7	1418	26.004348116611	1
7	1458	26.008696331557	3
7	1483	26.013044331557	1
7	1539	27.000000120487	3
7	1554	27.004348120487	1
7	1595	27.008696323335	3
7	1622	27.013044323335	1
7	1676	28.000000138765	3
7	1692	28.004348138765	1
7	1732	28.008696329991	3
7	1759	28.013044329991	1
7	1813	29.000000155698	3
7	1829	29.004348155698	1
7	1869	29.008696369892	3
7	1897	29.013044369892	1
7	1951	30.000000164776	3
7	1968	30.004348164776	1
7	2012	30.008696411642	3
7	2041	30.013044411642	1
7	2091	31.000000171153	3
7	2108	31.004348171153	1
7	2152	31.008696434909	3
7	2181	31.013044434909	1
7	2231	32.000000174888	3
7	2249	32.004348174888	1
7	2294	32.00869647851	3
7	2322	32.01304447851	1
7	2373	33.000000176545	3
7	2390	33.004348176545	1
7	2438	33.008696522521	3
7	2466	33.013044522521	1
7	2516	34.000000176558	3
7	2534	34.004348176558	1
7	2583	34.008696550524	3
7	2610	34.013044550524	1
7	2660	35.000000175095	3
7	2677	35.004348175095	1
7	2730	35.008696571835	3
7	2758	35.013044571835	1
7	2805	36.000000173029	3
7	2822	36.004348173029	1
7	2875	36.008696585755	3
7	2901	36.013044585755	1
7	2950	37.000000172591	3
7	2967	37.004348172591	1
7	3018	37.008696592287	3
7	3046	37.013044592287	1
7	3094	38.000000172901	3
7	3112	38.004348172901	1
7	3162	38.008696593515	3
7	3188	38.013044593515	1
7	3236	39.000000174899	3
7	3254	39.004348174899	1
7	3305	39.008696591461	3
7	3333	39.013044591461	1
7	3380	40.000000176563	3
7	3397	40.004348176563	1
7	3448	40.008696586819	3
7	3475	40.013044586819	1
7	3523	41.000000177094	3
7	3541	41.004348177094	1
7	3590	41.008696583214	3
7	3618	41.013044583214	1
7	3666	42.000000177126	3
7	3682	42.004348177126	1
7	3734	42.00869658605	3
7	3763	42.01304458605	1
7	3808	43.000000177193	3
7	3825	43.004348177193	1
7	3873	43.008696591523	3
7	3902	43.013044591523	1
7	3948	44.000000177166	3
7	3963	44.004348177166	1
7	4015	44.008696596582	3
7	4045	44.013044596582	1
7	4089	45.000000177148	3
7	4105	45.004348177148	1
7	4152	45.008696599184	3
7	4182	45.013044599184	1
7	4228	46.000000176927	3
7	4243	46.004348176927	1
7	4291	46.008696599347	3
7	4321	46.013044599347	1
7	4366	47.000000176618	3
7	4381	47.004348176618	1
7	4426	47.00869659897	3
7	4456	47.01304459897	1
7	4503	48.000000174047	3
7	4518	48.004348174047	1
7	4563	48.008696596319	3
7	4593	48.013044596319	1
7	4639	49.000000171004	3
7	4654	49.004348171004	1
7	4696	49.008696593366	3
7	4726	49.013044593366	1
7	4774	50.000000171021	3
7	4789	50.004348171021	1
7	4832	50.008696592687	3
7	4862	50.013044592687	1
7	4909	51.000000174956	3
7	4924	51.004348174956	1
7	4967	51.008696595376	3
7	4997	51.013044595376	1
7	5045	52.000000176934	3
7	5060	52.004348176934	1
7	5102	52.008696590016	3
7	5132	52.013044590016	1
7	5179	53.000000177147	3
7	5195	53.004348177147	1
7	5237	53.008696581713	3
7	5267	53.013044581713	1
7	5315	54.00000017714	3
7	5330	54.00434817714	1
7	5373	54.00869658267	3
7	5403	54.01304458267	1
7	5450	55.000000177038	3
7	5466	55.004348177038	1
7	5508	55.008696588904	3
7	5538	55.013044588904	1
7	5586	56.000000177002	3
7	5601	56.004348177002	1
7	5643	56.008696597886	3
7	5673	56.013044597886	1
7	5720	57.00000017626	3
7	5735	57.00434817626	1
7	5779	57.0086965986	3
7	5809	57.0130445986	1
7	5857	58.000000171973	3
7	5872	58.004348171973	1
7	5914	58.008696594349	3
7	5944	58.013044594349	1
7	5991	59.00000016513	3
7	6006	59.00434816513	1
7	6049	59.008696587374	3
7	6079	59.013044587374	1
7	6127	60.000000166295	3
7	6142	60.004348166295	1
7	6185	60.008696588311	3
7	6215	60.013044588311	1
8	52	3.8	1
8	420	20.006888328139	2
8	432	20.007236328139	1
8	498	20.32758329964	2
8	510	20.32793129964	1
8	637	20.340194386466	2
8	649	20.340526386466	1
8	686	20.344874694602	2
8	709	20.349222694602	1
8	794	21.004348137714	2
8	816	21.008696137714	1
8	907	22.004348113026	2
8	929	22.008696113026	1
8	1032	23.004348104605	2
8	1058	23.008696104605	1
8	1163	24.004348097779	2
8	1189	24.008696097779	1
8	1290	25.004348102473	2
8	1317	25.008696102473	1
8	1422	26.004348116611	2
8	1449	26.008696116611	1
8	1558	27.004348120487	2
8	1587	27.008696120487	1
8	1696	28.004348138765	2
8	1724	28.008696138765	1
8	1833	29.004348155698	2
8	1860	29.008696155698	1
8	1972	30.004348164776	2
8	1999	30.008696164776	1
8	2112	31.004348171153	2
8	2138	31.008696171153	1
8	2253	32.004348174888	2
8	2280	32.008696174888	1
8	2394	33.004348176545	2
8	2421	33.008696176545	1
8	2538	34.004348176558	2
8	2565	34.008696176558	1
8	2681	35.004348175095	2
8	2708	35.008696175095	1
8	2826	36.004348173029	2
8	2854	36.008696173029	1
8	2971	37.004348172591	2
8	2997	37.008696172591	1
8	3116	38.004348172901	2
8	3141	38.008696172901	1
8	3258	39.004348174899	2
8	3284	39.008696174899	1
8	3401	40.004348176563	2
8	3428	40.008696176563	1
8	3545	41.004348177094	2
8	3571	41.008696177094	1
8	3686	42.004348177126	2
8	3714	42.008696177126	1
8	3829	43.004348177193	2
8	3856	43.008696177193	1
8	3967	44.004348177166	2
8	3996	44.008696177166	1
8	4109	45.004348177148	2
8	4137	45.008696177148	1
8	4247	46.004348176927	2
8	4275	46.008696176927	1
8	4385	47.004348176618	2
8	4414	47.008696176618	1
8	4522	48.004348174047	2
8	4550	48.008696174047	1
8	4658	49.004348171004	2
8	4686	49.008696171004	1
8	4793	50.004348171021	2
8	4822	50.008696171021	1
8	4928	51.004348174956	2
8	4956	51.008696174956	1
8	5064	52.004348176934	2
8	5092	52.008696176934	1
8	5199	53.004348177147	2
8	5227	53.008696177147	1
8	5334	54.00434817714	2
8	5362	54.00869617714	1
8	5470	55.004348177038	2
8	5498	55.008696177038	1
8	5605	56.004348177002	2
8	5633	56.008696177002	1
8	5739	57.00434817626	2
8	5768	57.00869617626	1
8	5876	58.004348171973	2
8	5904	58.008696171973	1
8	6010	59.00434816513	2
8	6038	59.00869616513	1
8	6146	60.004348166295	2
8	6175	60.008696166295	1
9	58	3.9	0
9	58	3.9	0
9	58	3.9	4
10	58	3.9	1
10	2090	31.000000144425	3
10	2106	31.004348144425	1
10	2229	32.000000053281	3
10	2244	32.004348053281	1
10	2262	32.004348400527	3
10	2290	32.008696400527	1
10	2371	33.000000042148	3
10	2386	33.004348042148	1
10	2399	33.004348312064	3
10	2425	33.008696312064	1
10	2515	34.000000134389	3
10	2531	34.004348134389	1
10	2541	34.004348220429	3
10	2566	34.008696220429	1
10	2586	34.008696586158	3
10	2614	34.013044586158	1
10	2661	35.000000226312	3
10	2682	35.004348226312	1
10	2684	35.004348226683	3
10	2709	35.008696226683	1
10	2727	35.008696520442	3
10	2754	35.013044520442	1
10	2832	36.004348316651	3
10	2857	36.008696316651	1
10	2868	36.008696442654	3
10	2892	36.013044442654	1
10	3011	37.008696414236	3
10	3035	37.013044414236	1
10	3157	38.008696503367	3
10	3181	38.013044503367	1
10	3304	39.008696586594	3
10	3331	39.013044586594	1
11	58	3.9	1
12	113	7.5	0
12	113	7.5	0
12	113	7.5	4
13	113	7.5	1
13	422	20.006888500434	3
13	438	20.007236500434	1
13	500	20.327583471941	3
13	516	20.327931471941	1
13	562	20.332569539592	3
13	582	20.332901539592	1
13	639	20.340194558767	3
13	657	20.340526558767	1
13	689	20.344874866903	3
13	712	20.349222866903	1
13	797	21.004348309982	3
13	819	21.008696309982	1
13	910	22.004348283104	3
13	932	22.008696283104	1
13	1035	23.004348270817	3
13	1061	23.008696270817	1
13	1166	24.004348249393	3
13	1192	24.008696249393	1
13	1273	25.000000229493	3
13	1292	25.004348229493	1
13	1294	25.004348229641	3
13	1320	25.008696229641	1
13	1404	26.000000219183	3
13	1423	26.004348219183	1
13	1425	26.004348224084	3
13	1450	26.008696224084	1
13	1540	27.000000218823	3
13	1559	27.004348218823	1
13	1561	27.004348221911	3
13	1588	27.008696221911	1
13	1698	28.004348234378	3
13	1725	28.008696234378	1
13	1835	29.004348262795	3
13	1862	29.008696262795	1
13	1975	30.004348288209	3
13	2000	30.008696288209	1
13	2115	31.004348303031	3
13	2140	31.008696303031	1
13	2258	32.004348326699	3
13	2283	32.008696326699	1
13	2401	33.004348349533	3
13	2427	33.008696349533	1
13	2546	34.004348363541	3
13	2572	34.008696363541	1
13	2689	35.004348373465	3
13	2716	35.008696373465	1
13	2837	36.004348379392	3
13	2863	36.008696379392	1
13	2978	37.004348382439	3
13	3005	37.008696382439	1
13	3124	38.004348383208	3
13	3150	38.008696383208	1
13	3265	39.00434838318	3
13	3292	39.00869638318	1
13	3410	40.004348381691	3
13	3437	40.008696381691	1
13	3551	41.004348380154	3
13	3578	41.008696380154	1
13	3695	42.004348381588	3
13	3723	42.008696381588	1
13	3835	43.004348384358	3
13	3863	43.008696384358	1
13	3975	44.004348386874	3
13	4004	44.008696386874	1
13	4114	45.004348388166	3
13	4142	45.008696388166	1
13	4250	46.004348388137	3
13	4279	46.008696388137	1
13	4389	47.004348387794	3
13	4417	47.008696387794	1
13	4525	48.004348385183	3
13	4553	48.008696385183	1
13	4661	49.004348382185	3
13	4689	49.008696382185	1
13	4797	50.004348381854	3
13	4825	50.008696381854	1
13	4931	51.004348385166	3
13	4959	51.008696385166	1
13	5067	52.004348383475	3
13	5095	52.008696383475	1
13	5202	53.00434837943	3
13	5230	53.00869637943	1
13	5337	54.004348379905	3
13	5365	54.008696379905	1
13	5473	55.004348382971	3
13	5501	55.008696382971	1
13	5608	56.004348387444	3
13	5636	56.008696387444	1
13	5743	57.00434838743	3
13	5772	57.00869638743	1
13	5879	58.004348383161	3
13	5907	58.008696383161	1
13	6013	59.004348376252	3
13	6041	59.008696376252	1
13	6150	60.004348377303	3
13	6178	60.008696377303	1
14	113	7.5	1
14	534	20.33222120004	2
14	546	20.33256920004	1
14	603	20.335625955479	2
14	615	20.335957955479	1
14	716	20.349222866903	2
14	738	20.353570866903	1
14	823	21.008696309982	2
14	844	21.013044309982	1
14	936	22.008696283104	2
14	957	22.013044283104	1
14	1065	23.008696270817	2
14	1090	23.013044270817	1
14	1196	24.008696249393	2
14	1221	24.013044249393	1
14	1324	25.008696229641	2
14	1349	25.013044229641	1
14	1454	26.008696224084	2
14	1482	26.013044224084	1
14	1592	27.008696221911	2
14	1621	27.013044221911	1
14	1729	28.008696234378	2
14	1758	28.013044234378	1
14	1866	29.008696262795	2
14	1896	29.013044262795	1
14	2004	30.008696288209	2
14	2035	30.013044288209	1
14	2144	31.008696303031	2
14	2175	31.013044303031	1
14	2287	32.008696326699	2
14	2316	32.013044326699	1
14	2431	33.008696349533	2
14	2458	33.013044349533	1
14	2576	34.008696363541	2
14	2602	34.013044363541	1
14	2720	35.008696373465	2
14	2746	35.013044373465	1
14	2867	36.008696379392	2
14	2891	36.013044379392	1
14	3009	37.008696382439	2
14	3034	37.013044382439	1
14	3154	38.008696383208	2
14	3178	38.013044383208	1
14	3296	39.00869638318	2
14	3321	39.01304438318	1
14	3441	40.008696381691	2
14	3465	40.013044381691	1
14	3582	41.008696380154	2
14	3608	41.013044380154	1
14	3727	42.008696381588	2
14	3751	42.013044381588	1
14	3867	43.008696384358	2
14	3892	43.013044384358	1
14	4008	44.008696386874	2
14	4033	44.013044386874	1
14	4146	45.008696388166	2
14	4172	45.013044388166	1
14	4283	46.008696388137	2
14	4311	46.013044388137	1
14	4421	47.008696387794	2
14	4448	47.013044387794	1
14	4557	48.008696385183	2
14	4585	48.013044385183	1
14	4693	49.008696382185	2
14	4720	49.013044382185	1
14	4829	50.008696381854	2
14	4856	50.013044381854	1
14	4963	51.008696385166	2
14	4991	51.013044385166	1
14	5099	52.008696383475	2
14	5126	52.013044383475	1
14	5234	53.00869637943	2
14	5261	53.01304437943	1
14	5369	54.008696379905	2
14	5397	54.013044379905	1
14	5505	55.008696382971	2
14	5532	55.013044382971	1
14	5640	56.008696387444	2
14	5667	56.013044387444	1
14	5776	57.00869638743	2
14	5803	57.01304438743	1
14	5911	58.008696383161	2
14	5938	58.013044383161	1
14	6045	59.008696376252	2
14	6073	59.013044376252	1
14	6182	60.008696377303	2
14	6209	60.013044377303	1
15	119	7.6	0
15	119	7.6	0
15	119	7.6	4
16	119	7.6	1
16	2232	32.000000212641	3
16	2254	32.004348212641	1
16	2372	33.00000012552	3
16	2388	33.00434812552	1
16	2514	34.000000035268	3
16	2529	34.004348035268	1
16	2548	34.004348388368	3
16	2577	34.008696388368	1
16	2658	35.000000059886	3
16	2673	35.004348059886	1
16	2686	35.004348296007	3
16	2711	35.008696296007	1
16	2804	36.000000149701	3
16	2820	36.004348149701	1
16	2830	36.004348203258	3
16	2855	36.008696203258	1
16	2877	36.008696611958	3
16	2905	36.013044611958	1
16	2973	37.004348238159	3
16	2998	37.008696238159	1
16	3015	37.008696527047	3
16	3042	37.013044527047	1
16	3119	38.00434833087	3
16	3144	38.00869633087	1
16	3155	38.00869643707	3
16	3179	38.01304443707	1
16	3298	39.008696424741	3
16	3322	39.013044424741	1
16	3445	40.008696515177	3
16	3468	40.013044515177	1
16	3592	41.008696602961	3
16	3620	41.013044602961	1
17	119	7.6	1
18	182	11.2	0
18	182	11.2	0
18	182	11.2	4
19	182	11.2	1
19	535	20.332221369816	3
19	547	20.332569369816	1
19	604	20.335626125255	3
19	616	20.335958125255	1
19	718	20.349223036679	3
19	739	20.353571036679	1
19	825	21.008696479951	3
19	845	21.013044479951	1
19	939	22.008696453395	3
19	960	22.013044453395	1
19	1068	23.008696441067	3
19	1093	23.013044441067	1
19	1199	24.00869641958	3
19	1224	24.01304441958	1
19	1327	25.008696399097	3
19	1352	25.013044399097	1
19	1460	26.008696390331	3
19	1485	26.013044390331	1
19	1597	27.008696381082	3
19	1624	27.013044381082	1
19	1734	28.008696376708	3
19	1761	28.013044376708	1
19	1839	29.004348378265	3
19	1870	29.008696378265	1
19	1872	29.00869637861	3
19	1899	29.01304437861	1
19	1980	30.004348382007	3
19	2009	30.008696382007	1
19	2011	30.008696387029	3
19	2036	30.013044387029	1
19	2119	31.00434839272	3
19	2149	31.00869639272	1
19	2151	31.008696396798	3
19	2176	31.013044396798	1
19	2293	32.008696413464	3
19	2317	32.013044413464	1
19	2435	33.008696445056	3
19	2459	33.013044445056	1
19	2581	34.008696464585	3
19	2605	34.013044464585	1
19	2726	35.008696475593	3
19	2749	35.013044475593	1
19	2872	36.008696498371	3
19	2896	36.013044498371	1
19	3014	37.008696519879	3
19	3037	37.013044519879	1
19	3160	38.008696531657	3
19	3183	38.013044531657	1
19	3302	39.008696538071	3
19	3326	39.013044538071	1
19	3447	40.008696540453	3
19	3470	40.013044540453	1
19	3589	41.008696540337	3
19	3613	41.013044540337	1
19	3732	42.00869654175	3
19	3756	42.01304454175	1
19	3872	43.008696543269	3
19	3897	43.013044543269	1
19	4013	44.008696543968	3
19	4038	44.013044543968	1
19	4151	45.008696545003	3
19	4177	45.013044545003	1
19	4288	46.008696544971	3
19	4314	46.013044544971	1
19	4425	47.008696546141	3
19	4451	47.013044546141	1
19	4560	48.008696545045	3
19	4586	48.013044545045	1
19	4694	49.008696542472	2
19	4695	49.008696542472	3
19	4721	49.013044542472	1
19	4831	50.008696542174	3
19	4857	50.013044542174	1
19	4966	51.008696545517	3
19	4992	51.013044545517	1
19	5101	52.008696543797	3
19	5127	52.013044543797	1
19	5236	53.008696539747	3
19	5262	53.013044539747	1
19	5372	54.008696540092	3
19	5398	54.013044540092	1
19	5507	55.008696542593	3
19	5533	55.013044542593	1
19	5642	56.008696546205	3
19	5668	56.013044546205	1
19	5778	57.008696543237	3
19	5804	57.013044543237	1
19	5913	58.008696537796	3
19	5939	58.013044537796	1
19	6048	59.008696534305	3
19	6074	59.013044534305	1
19	6183	60.008696537254	2
19	6184	60.008696537254	3
19	6210	60.013044537254	1
20	182	11.2	1
20	555	20.332569369816	2
20	581	20.332901369816	1
21	189	11.4	0
21	189	11.4	0
21	189	11.4	4
22	189	11.4	1
22	2517	34.00000020154	3
22	2539	34.00434820154	1
22	2659	35.000000112608	3
22	2675	35.004348112608	1
22	2803	36.000000022598	3
22	2818	36.004348022598	1
22	2835	36.004348368653	3
22	2861	36.008696368653	1
22	2948	37.000000072832	3
22	2963	37.004348072832	1
22	2975	37.004348280395	3
22	3000	37.008696280395	1
22	3092	38.000000162385	3
22	3108	38.004348162385	1
22	3117	38.004348191458	3
22	3142	38.008696191458	1
22	3163	38.008696611169	3
22	3190	38.013044611169	1
22	3260	39.004348252685	3
22	3285	39.008696252685	1
22	3300	39.008696519938	3
22	3324	39.013044519938	1
22	3407	40.004348343282	3
22	3433	40.008696343282	1
22	3442	40.00869642681	3
22	3466	40.01304442681	1
22	3586	41.00869643043	3
22	3609	41.01304443043	1
22	3730	42.008696524105	3
22	3754	42.013044524105	1
23	189	11.4	1
24	257	14.9	0
24	257	14.9	0
24	257	14.9	4
25	257	14.9	1
25	564	20.332569542506	3
25	587	20.332901542506	1
25	2297	32.008696556671	3
25	2326	32.013044556671	1
25	2440	33.008696559156	3
25	2468	33.013044559156	1
25	2585	34.008696559121	3
25	2612	34.013044559121	1
25	2729	35.008696569416	3
25	2756	35.013044569416	1
25	2876	36.00869658786	3
25	2903	36.01304458786	1
26	257	14.9	1
27	266	15.1	0
27	266	15.1	0
27	266	15.1	4
28	266	15.1	1
28	2806	36.00000019062	3
28	2828	36.00434819062	1
28	2949	37.000000098023	3
28	2965	37.004348098023	1
28	3091	38.000000011608	3
28	3106	38.004348011608	1
28	3122	38.004348353282	3
28	3148	38.008696353282	1
28	3235	39.00000008901	3
28	3251	39.00434808901	1
28	3262	39.004348266031	3
28	3287	39.008696266031	1
28	3381	40.000000180734	3
28	3402	40.004348180734	1
28	3404	40.004348187465	3
28	3429	40.008696187465	1
28	3449	40.008696590035	3
28	3477	40.013044590035	1
28	3548	41.004348271566	3
28	3574	41.008696271566	1
28	3587	41.008696500118	3
28	3611	41.013044500118	1
28	3693	42.004348360667	3
28	3721	42.008696360667	1
28	3728	42.008696411679	3
28	3752	42.013044411679	1
28	3869	43.008696450001	3
28	3893	43.013044450001	1
28	4012	44.008696541904	3
28	4036	44.013044541904	1
29	266	15.1	1
30	341	18.7	0
30	341	18.7	0
30	341	18.7	4
31	341	18.7	1
32	341	18.7	1
33	348	18.8	0
33	348	18.8	0
33	348	18.8	4
34	348	18.8	1
34	3093	38.000000171856	3
34	3110	38.004348171856	1
34	3234	39.000000079271	3
34	3249	39.004348079271	1
34	3378	40.000000017983	3
34	3393	40.004348017983	1
34	3406	40.004348339442	3
34	3431	40.008696339442	1
34	3522	41.000000108038	3
34	3538	41.004348108038	1
34	3546	41.004348247516	3
34	3572	41.008696247516	1
34	3667	42.000000200833	3
34	3687	42.004348200833	1
34	3689	42.004348202842	3
34	3715	42.008696202842	1
34	3733	42.008696567755	3
34	3761	42.013044567755	1
34	3832	43.004348293717	3
34	3859	43.008696293717	1
34	3870	43.008696482441	3
34	3895	43.013044482441	1
34	3973	44.004348384953	3
34	4002	44.008696384953	1
34	4009	44.008696399141	3
34	4034	44.013044399141	1
34	4149	45.008696475623	3
34	4175	45.013044475623	1
34	4290	46.008696564213	3
34	4319	46.013044564213	1
35	348	18.8	1
36	379	20	1024
36	772	21	1024
36	885	22	1024
36	1008	23	1024
36	1139	24	1024
36	1266	25	1024
36	1397	26	1024
36	1533	27	1024
36	1670	28	1024
36	1806	29	1024
36	1944	30	1024
36	2083	31	1024
36	2223	32	1024
36	2365	33	1024
36	2508	34	1024
36	2652	35	1024
36	2797	36	1024
36	2942	37	1024
36	3085	38	1024
36	3228	39	1024
36	3372	40	1024
36	3515	41	1024
36	3659	42	1024
36	3801	43	1024
36	3942	44	1024
36	4083	45	1024
36	4222	46	1024
36	4360	47	1024
36	4497	48	1024
36	4633	49	1024
36	4768	50	1024
36	4903	51	1024
36	5039	52	1024
36	5173	53	1024
36	5309	54	1024
36	5444	55	1024
36	5580	56	1024
36	5714	57	1024
36	5851	58	1024
36	5985	59	1024
36	6121	60	1024
37	382	20	1032
37	385	20.002964223082	32
37	463	20.32422132872	32
37	774	21	1032
37	887	22	1032
37	1010	23	1032
37	1141	24	1032
37	1268	25	1032
37	1399	26	1032
37	1535	27	1032
37	1672	28	1032
37	1808	29	1032
37	1946	30	1032
37	2085	31	1032
37	2225	32	1032
37	2367	33	1032
37	2510	34	1032
37	2654	35	1032
37	2799	36	1032
37	2944	37	1032
37	3087	38	1032
37	3230	39	1032
37	3374	40	1032
37	3517	41	1032
37	3661	42	1032
37	3803	43	1032
37	3944	44	1032
37	4085	45	1032
37	4224	46	1032
37	4362	47	1032
37	4499	48	1032
37	4635	49	1032
37	4770	50	1032
37	4905	51	1032
37	5041	52	1032
37	5175	53	1032
37	5311	54	1032
37	5446	55	1032
37	5582	56	1032
37	5716	57	1032
37	5853	58	1032
37	5987	59	1032
37	6123	60	1032
38	387	20.002964223082	52
38	465	20.32422132872	52
38	655	20.340526540534	1052
38	776	21	1052
38	889	22	1052
38	1012	23	1052
38	1143	24	1052
38	1270	25	1052
38	1401	26	1052
38	1537	27	1052
38	1674	28	1052
38	1810	29	1052
38	1948	30	1052
38	2087	31	1052
38	2227	32	1052
38	2369	33	1052
38	2512	34	1052
38	2656	35	1052
38	2801	36	1052
38	2946	37	1052
38	3089	38	1052
38	3232	39	1052
38	3376	40	1052
38	3519	41	1052
38	3663	42	1052
38	3805	43	1052
38	3946	44	1052
38	4087	45	1052
38	4226	46	1052
38	4364	47	1052
38	4501	48	1052
38	4637	49	1052
38	4772	50	1052
38	4907	51	1052
38	5043	52	1052
38	5177	53	1052
38	5313	54	1052
38	5448	55	1052
38	5584	56	1052
38	5718	57	1052
38	5855	58	1052
38	5989	59	1052
38	6125	60	1052
39	387	20.002964223082	52
39	465	20.32422132872	52
39	655	20.340526540534	1052
39	776	21	1052
39	889	22	1052
39	1012	23	1052
39	1143	24	1052
39	1270	25	1052
39	1401	26	1052
39	1537	27	1052
39	1674	28	1052
39	1810	29	1052
39	1948	30	1052
39	2087	31	1052
39	2227	32	1052
39	2369	33	1052
39	2512	34	1052
39	2656	35	1052
39	2801	36	1052
39	2946	37	1052
39	3089	38	1052
39	3232	39	1052
39	3376	40	1052
39	3519	41	1052
39	3663	42	1052
39	3805	43	1052
39	3946	44	1052
39	4087	45	1052
39	4226	46	1052
39	4364	47	1052
39	4501	48	1052
39	4637	49	1052
39	4772	50	1052
39	4907	51	1052
39	5043	52	1052
39	5177	53	1052
39	5313	54	1052
39	5448	55	1052
39	5584	56	1052
39	5718	57	1052
39	5855	58	1052
39	5989	59	1052
39	6125	60	1052
40	387	20.002964223082	1
40	387	20.002964223082	0
40	465	20.32422132872	1
40	465	20.32422132872	0
40	655	20.340526540534	1
40	655	20.340526540534	0
40	776	21	1
40	776	21	0
40	889	22	1
40	889	22	0
40	1012	23	1
40	1012	23	0
40	1143	24	1
40	1143	24	0
40	1270	25	1
40	1270	25	0
40	1401	26	1
40	1401	26	0
40	1537	27	1
40	1537	27	0
40	1674	28	1
40	1674	28	0
40	1810	29	1
40	1810	29	0
40	1948	30	1
40	1948	30	0
40	2087	31	1
40	2087	31	0
40	2227	32	1
40	2227	32	0
40	2369	33	1
40	2369	33	0
40	2512	34	1
40	2512	34	0
40	2656	35	1
40	2656	35	0
40	2801	36	1
40	2801	36	0
40	2946	37	1
40	2946	37	0
40	3089	38	1
40	3089	38	0
40	3232	39	1
40	3232	39	0
40	3376	40	1
40	3376	40	0
40	3519	41	1
40	3519	41	0
40	3663	42	1
40	3663	42	0
40	3805	43	1
40	3805	43	0
40	3946	44	1
40	3946	44	0
40	4087	45	1
40	4087	45	0
40	4226	46	1
40	4226	46	0
40	4364	47	1
40	4364	47	0
40	4501	48	1
40	4501	48	0
40	4637	49	1
40	4637	49	0
40	4772	50	1
40	4772	50	0
40	4907	51	1
40	4907	51	0
40	5043	52	1
40	5043	52	0
40	5177	53	1
40	5177	53	0
40	5313	54	1
40	5313	54	0
40	5448	55	1
40	5448	55	0
40	5584	56	1
40	5584	56	0
40	5718	57	1
40	5718	57	0
40	5855	58	1
40	5855	58	0
40	5989	59	1
40	5989	59	0
40	6125	60	1
40	6125	60	0
41	387	20.002964223082	52
41	465	20.32422132872	52
41	655	20.340526540534	1052
41	776	21	1052
41	889	22	1052
41	1012	23	1052
41	1143	24	1052
41	1270	25	1052
41	1401	26	1052
41	1537	27	1052
41	1674	28	1052
41	1810	29	1052
41	1948	30	1052
41	2087	31	1052
41	2227	32	1052
41	2369	33	1052
41	2512	34	1052
41	2656	35	1052
41	2801	36	1052
41	2946	37	1052
41	3089	38	1052
41	3232	39	1052
41	3376	40	1052
41	3519	41	1052
41	3663	42	1052
41	3805	43	1052
41	3946	44	1052
41	4087	45	1052
41	4226	46	1052
41	4364	47	1052
41	4501	48	1052
41	4637	49	1052
41	4772	50	1052
41	4907	51	1052
41	5043	52	1052
41	5177	53	1052
41	5313	54	1052
41	5448	55	1052
41	5584	56	1052
41	5718	57	1052
41	5855	58	1052
41	5989	59	1052
41	6125	60	1052
42	387	20.002964223082	0
42	465	20.32422132872	0
42	655	20.340526540534	0
42	776	21	0
42	889	22	0
42	1012	23	0
42	1143	24	0
42	1270	25	0
42	1401	26	0
42	1537	27	0
42	1674	28	0
42	1810	29	0
42	1948	30	0
42	2087	31	0
42	2227	32	0
42	2369	33	0
42	2512	34	0
42	2656	35	0
42	2801	36	0
42	2946	37	0
42	3089	38	0
42	3232	39	0
42	3376	40	0
42	3519	41	0
42	3663	42	0
42	3805	43	0
42	3946	44	0
42	4087	45	0
42	4226	46	0
42	4364	47	0
42	4501	48	0
42	4637	49	0
42	4772	50	0
42	4907	51	0
42	5043	52	0
42	5177	53	0
42	5313	54	0
42	5448	55	0
42	5584	56	0
42	5718	57	0
42	5855	58	0
42	5989	59	0
42	6125	60	0
43	387	20.002964223082	75
43	465	20.32422132872	75
43	655	20.340526540534	1075
43	776	21	1075
43	889	22	1075
43	1012	23	1075
43	1143	24	1075
43	1270	25	1075
43	1401	26	1075
43	1537	27	1075
43	1674	28	1075
43	1810	29	1075
43	1948	30	1075
43	2087	31	1075
43	2227	32	1075
43	2369	33	1075
43	2512	34	1075
43	2656	35	1075
43	2801	36	1075
43	2946	37	1075
43	3089	38	1075
43	3232	39	1075
43	3376	40	1075
43	3519	41	1075
43	3663	42	1075
43	3805	43	1075
43	3946	44	1075
43	4087	45	1075
43	4226	46	1075
43	4364	47	1075
43	4501	48	1075
43	4637	49	1075
43	4772	50	1075
43	4907	51	1075
43	5043	52	1075
43	5177	53	1075
43	5313	54	1075
43	5448	55	1075
43	5584	56	1075
43	5718	57	1075
43	5855	58	1075
43	5989	59	1075
43	6125	60	1075
44	402	20.003312381314	75
44	480	20.324569482788	75
44	557	20.332569372341	75
44	619	20.33595812778	71
44	683	20.344874694602	1075
44	745	20.353571039204	1075
44	791	21.004348137714	1075
44	851	21.01304448225	1075
44	904	22.004348113026	1075
44	959	22.013044453182	1075
44	1029	23.004348104605	1075
44	1092	23.013044437029	1075
44	1160	24.004348097779	1075
44	1223	24.013044401007	1075
44	1287	25.004348102473	1075
44	1351	25.013044356809	1075
44	1419	26.004348116611	1075
44	1484	26.013044331557	1075
44	1555	27.004348120487	1075
44	1623	27.013044323335	1075
44	1693	28.004348138765	1075
44	1760	28.013044329991	1075
44	1830	29.004348155698	1075
44	1898	29.013044369892	1075
44	1969	30.004348164776	1075
44	2042	30.013044411642	1075
44	2109	31.004348171153	1075
44	2182	31.013044434909	1075
44	2250	32.004348174888	1075
44	2323	32.01304447851	1075
44	2391	33.004348176545	1075
44	2467	33.013044522521	1075
44	2535	34.004348176558	1075
44	2611	34.013044550524	1075
44	2678	35.004348175095	1075
44	2759	35.013044571835	1075
44	2823	36.004348173029	1075
44	2902	36.013044585755	1075
44	2968	37.004348172591	1075
44	3047	37.013044592287	1075
44	3113	38.004348172901	1075
44	3189	38.013044593515	1075
44	3255	39.004348174899	1075
44	3334	39.013044591461	1075
44	3398	40.004348176563	1075
44	3476	40.013044586819	1075
44	3542	41.004348177094	1075
44	3619	41.013044583214	1075
44	3683	42.004348177126	1075
44	3764	42.01304458605	1075
44	3826	43.004348177193	1075
44	3903	43.013044591523	1075
44	3964	44.004348177166	1075
44	4046	44.013044596582	1075
44	4106	45.004348177148	1075
44	4183	45.013044599184	1075
44	4244	46.004348176927	1075
44	4322	46.013044599347	1075
44	4382	47.004348176618	1075
44	4457	47.01304459897	1075
44	4519	48.004348174047	1075
44	4594	48.013044596319	1075
44	4655	49.004348171004	1075
44	4727	49.013044593366	1075
44	4790	50.004348171021	1075
44	4863	50.013044592687	1075
44	4925	51.004348174956	1075
44	4998	51.013044595376	1075
44	5061	52.004348176934	1075
44	5133	52.013044590016	1075
44	5196	53.004348177147	1075
44	5268	53.013044581713	1075
44	5331	54.00434817714	1075
44	5404	54.01304458267	1075
44	5467	55.004348177038	1075
44	5539	55.013044588904	1075
44	5602	56.004348177002	1075
44	5674	56.013044597886	1075
44	5736	57.00434817626	1075
44	5810	57.0130445986	1075
44	5873	58.004348171973	1075
44	5945	58.013044594349	1075
44	6007	59.00434816513	1075
44	6080	59.013044587374	1075
44	6143	60.004348166295	1075
44	6216	60.013044588311	1075
45	402	20.003312381314	52
45	480	20.324569482788	52
45	557	20.332569372341	52
45	619	20.33595812778	48
45	683	20.344874694602	1052
45	791	21.004348137714	1052
45	904	22.004348113026	1052
45	1029	23.004348104605	1052
45	1160	24.004348097779	1052
45	1287	25.004348102473	1052
45	1419	26.004348116611	1052
45	1555	27.004348120487	1052
45	1693	28.004348138765	1052
45	1830	29.004348155698	1052
45	1969	30.004348164776	1052
45	2109	31.004348171153	1052
45	2250	32.004348174888	1052
45	2391	33.004348176545	1052
45	2535	34.004348176558	1052
45	2678	35.004348175095	1052
45	2823	36.004348173029	1052
45	2968	37.004348172591	1052
45	3113	38.004348172901	1052
45	3255	39.004348174899	1052
45	3398	40.004348176563	1052
45	3542	41.004348177094	1052
45	3683	42.004348177126	1052
45	3826	43.004348177193	1052
45	3964	44.004348177166	1052
45	4106	45.004348177148	1052
45	4244	46.004348176927	1052
45	4382	47.004348176618	1052
45	4519	48.004348174047	1052
45	4655	49.004348171004	1052
45	4790	50.004348171021	1052
45	4925	51.004348174956	1052
45	5061	52.004348176934	1052
45	5196	53.004348177147	1052
45	5331	54.00434817714	1052
45	5467	55.004348177038	1052
45	5602	56.004348177002	1052
45	5736	57.00434817626	1052
45	5873	58.004348171973	1052
45	6007	59.00434816513	1052
45	6143	60.004348166295	1052
46	404	20.003312381314	32
46	482	20.324569482788	32
46	559	20.332569372341	32
46	621	20.33595812778	28
47	404	20.003312381314	1
47	482	20.324569482788	2
47	559	20.332569372341	3
47	621	20.33595812778	4
48	417	20.006888328139	32
48	495	20.32758329964	32
48	634	20.340194386466	28
49	419	20.006888328139	52
49	497	20.32758329964	52
49	636	20.340194386466	48
49	685	20.344874694602	1052
49	793	21.004348137714	1052
49	906	22.004348113026	1052
49	1031	23.004348104605	1052
49	1162	24.004348097779	1052
49	1289	25.004348102473	1052
49	1421	26.004348116611	1052
49	1557	27.004348120487	1052
49	1695	28.004348138765	1052
49	1832	29.004348155698	1052
49	1971	30.004348164776	1052
49	2111	31.004348171153	1052
49	2252	32.004348174888	1052
49	2393	33.004348176545	1052
49	2537	34.004348176558	1052
49	2680	35.004348175095	1052
49	2825	36.004348173029	1052
49	2970	37.004348172591	1052
49	3115	38.004348172901	1052
49	3257	39.004348174899	1052
49	3400	40.004348176563	1052
49	3544	41.004348177094	1052
49	3685	42.004348177126	1052
49	3828	43.004348177193	1052
49	3966	44.004348177166	1052
49	4108	45.004348177148	1052
49	4246	46.004348176927	1052
49	4384	47.004348176618	1052
49	4521	48.004348174047	1052
49	4657	49.004348171004	1052
49	4792	50.004348171021	1052
49	4927	51.004348174956	1052
49	5063	52.004348176934	1052
49	5198	53.004348177147	1052
49	5333	54.00434817714	1052
49	5469	55.004348177038	1052
49	5604	56.004348177002	1052
49	5738	57.00434817626	1052
49	5875	58.004348171973	1052
49	6009	59.00434816513	1052
49	6145	60.004348166295	1052
50	419	20.006888328139	52
50	497	20.32758329964	52
50	636	20.340194386466	48
50	685	20.344874694602	1052
50	793	21.004348137714	1052
50	906	22.004348113026	1052
50	1031	23.004348104605	1052
50	1162	24.004348097779	1052
50	1289	25.004348102473	1052
50	1421	26.004348116611	1052
50	1557	27.004348120487	1052
50	1695	28.004348138765	1052
50	1832	29.004348155698	1052
50	1971	30.004348164776	1052
50	2111	31.004348171153	1052
50	2252	32.004348174888	1052
50	2393	33.004348176545	1052
50	2537	34.004348176558	1052
50	2680	35.004348175095	1052
50	2825	36.004348173029	1052
50	2970	37.004348172591	1052
50	3115	38.004348172901	1052
50	3257	39.004348174899	1052
50	3400	40.004348176563	1052
50	3544	41.004348177094	1052
50	3685	42.004348177126	1052
50	3828	43.004348177193	1052
50	3966	44.004348177166	1052
50	4108	45.004348177148	1052
50	4246	46.004348176927	1052
50	4384	47.004348176618	1052
50	4521	48.004348174047	1052
50	4657	49.004348171004	1052
50	4792	50.004348171021	1052
50	4927	51.004348174956	1052
50	5063	52.004348176934	1052
50	5198	53.004348177147	1052
50	5333	54.00434817714	1052
50	5469	55.004348177038	1052
50	5604	56.004348177002	1052
50	5738	57.00434817626	1052
50	5875	58.004348171973	1052
50	6009	59.00434816513	1052
50	6145	60.004348166295	1052
51	419	20.006888328139	1
51	419	20.006888328139	0
51	497	20.32758329964	1
51	497	20.32758329964	0
51	636	20.340194386466	1
51	636	20.340194386466	0
51	685	20.344874694602	1
51	685	20.344874694602	0
51	793	21.004348137714	1
51	793	21.004348137714	0
51	906	22.004348113026	1
51	906	22.004348113026	0
51	1031	23.004348104605	1
51	1031	23.004348104605	0
51	1162	24.004348097779	1
51	1162	24.004348097779	0
51	1289	25.004348102473	1
51	1289	25.004348102473	0
51	1421	26.004348116611	1
51	1421	26.004348116611	0
51	1557	27.004348120487	1
51	1557	27.004348120487	0
51	1695	28.004348138765	1
51	1695	28.004348138765	0
51	1832	29.004348155698	1
51	1832	29.004348155698	0
51	1971	30.004348164776	1
51	1971	30.004348164776	0
51	2111	31.004348171153	1
51	2111	31.004348171153	0
51	2252	32.004348174888	1
51	2252	32.004348174888	0
51	2393	33.004348176545	1
51	2393	33.004348176545	0
51	2537	34.004348176558	1
51	2537	34.004348176558	0
51	2680	35.004348175095	1
51	2680	35.004348175095	0
51	2825	36.004348173029	1
51	2825	36.004348173029	0
51	2970	37.004348172591	1
51	2970	37.004348172591	0
51	3115	38.004348172901	1
51	3115	38.004348172901	0
51	3257	39.004348174899	1
51	3257	39.004348174899	0
51	3400	40.004348176563	1
51	3400	40.004348176563	0
51	3544	41.004348177094	1
51	3544	41.004348177094	0
51	3685	42.004348177126	1
51	3685	42.004348177126	0
51	3828	43.004348177193	1
51	3828	43.004348177193	0
51	3966	44.004348177166	1
51	3966	44.004348177166	0
51	4108	45.004348177148	1
51	4108	45.004348177148	0
51	4246	46.004348176927	1
51	4246	46.004348176927	0
51	4384	47.004348176618	1
51	4384	47.004348176618	0
51	4521	48.004348174047	1
51	4521	48.004348174047	0
51	4657	49.004348171004	1
51	4657	49.004348171004	0
51	4792	50.004348171021	1
51	4792	50.004348171021	0
51	4927	51.004348174956	1
51	4927	51.004348174956	0
51	5063	52.004348176934	1
51	5063	52.004348176934	0
51	5198	53.004348177147	1
51	5198	53.004348177147	0
51	5333	54.00434817714	1
51	5333	54.00434817714	0
51	5469	55.004348177038	1
51	5469	55.004348177038	0
51	5604	56.004348177002	1
51	5604	56.004348177002	0
51	5738	57.00434817626	1
51	5738	57.00434817626	0
51	5875	58.004348171973	1
51	5875	58.004348171973	0
51	6009	59.00434816513	1
51	6009	59.00434816513	0
51	6145	60.004348166295	1
51	6145	60.004348166295	0
52	419	20.006888328139	52
52	497	20.32758329964	52
52	636	20.340194386466	48
52	685	20.344874694602	1052
52	793	21.004348137714	1052
52	906	22.004348113026	1052
52	1031	23.004348104605	1052
52	1162	24.004348097779	1052
52	1289	25.004348102473	1052
52	1421	26.004348116611	1052
52	1557	27.004348120487	1052
52	1695	28.004348138765	1052
52	1832	29.004348155698	1052
52	1971	30.004348164776	1052
52	2111	31.004348171153	1052
52	2252	32.004348174888	1052
52	2393	33.004348176545	1052
52	2537	34.004348176558	1052
52	2680	35.004348175095	1052
52	2825	36.004348173029	1052
52	2970	37.004348172591	1052
52	3115	38.004348172901	1052
52	3257	39.004348174899	1052
52	3400	40.004348176563	1052
52	3544	41.004348177094	1052
52	3685	42.004348177126	1052
52	3828	43.004348177193	1052
52	3966	44.004348177166	1052
52	4108	45.004348177148	1052
52	4246	46.004348176927	1052
52	4384	47.004348176618	1052
52	4521	48.004348174047	1052
52	4657	49.004348171004	1052
52	4792	50.004348171021	1052
52	4927	51.004348174956	1052
52	5063	52.004348176934	1052
52	5198	53.004348177147	1052
52	5333	54.00434817714	1052
52	5469	55.004348177038	1052
52	5604	56.004348177002	1052
52	5738	57.00434817626	1052
52	5875	58.004348171973	1052
52	6009	59.00434816513	1052
52	6145	60.004348166295	1052
53	419	20.006888328139	0
53	497	20.32758329964	0
53	636	20.340194386466	0
53	685	20.344874694602	0
53	793	21.004348137714	0
53	906	22.004348113026	0
53	1031	23.004348104605	0
53	1162	24.004348097779	0
53	1289	25.004348102473	0
53	1421	26.004348116611	0
53	1557	27.004348120487	0
53	1695	28.004348138765	0
53	1832	29.004348155698	0
53	1971	30.004348164776	0
53	2111	31.004348171153	0
53	2252	32.004348174888	0
53	2393	33.004348176545	0
53	2537	34.004348176558	0
53	2680	35.004348175095	0
53	2825	36.004348173029	0
53	2970	37.004348172591	0
53	3115	38.004348172901	0
53	3257	39.004348174899	0
53	3400	40.004348176563	0
53	3544	41.004348177094	0
53	3685	42.004348177126	0
53	3828	43.004348177193	0
53	3966	44.004348177166	0
53	4108	45.004348177148	0
53	4246	46.004348176927	0
53	4384	47.004348176618	0
53	4521	48.004348174047	0
53	4657	49.004348171004	0
53	4792	50.004348171021	0
53	4927	51.004348174956	0
53	5063	52.004348176934	0
53	5198	53.004348177147	0
53	5333	54.00434817714	0
53	5469	55.004348177038	0
53	5604	56.004348177002	0
53	5738	57.00434817626	0
53	5875	58.004348171973	0
53	6009	59.00434816513	0
53	6145	60.004348166295	0
54	419	20.006888328139	75
54	497	20.32758329964	75
54	636	20.340194386466	71
54	685	20.344874694602	1075
54	793	21.004348137714	1075
54	906	22.004348113026	1075
54	1031	23.004348104605	1075
54	1162	24.004348097779	1075
54	1289	25.004348102473	1075
54	1421	26.004348116611	1075
54	1557	27.004348120487	1075
54	1695	28.004348138765	1075
54	1832	29.004348155698	1075
54	1971	30.004348164776	1075
54	2111	31.004348171153	1075
54	2252	32.004348174888	1075
54	2393	33.004348176545	1075
54	2537	34.004348176558	1075
54	2680	35.004348175095	1075
54	2825	36.004348173029	1075
54	2970	37.004348172591	1075
54	3115	38.004348172901	1075
54	3257	39.004348174899	1075
54	3400	40.004348176563	1075
54	3544	41.004348177094	1075
54	3685	42.004348177126	1075
54	3828	43.004348177193	1075
54	3966	44.004348177166	1075
54	4108	45.004348177148	1075
54	4246	46.004348176927	1075
54	4384	47.004348176618	1075
54	4521	48.004348174047	1075
54	4657	49.004348171004	1075
54	4792	50.004348171021	1075
54	4927	51.004348174956	1075
54	5063	52.004348176934	1075
54	5198	53.004348177147	1075
54	5333	54.00434817714	1075
54	5469	55.004348177038	1075
54	5604	56.004348177002	1075
54	5738	57.00434817626	1075
54	5875	58.004348171973	1075
54	6009	59.00434816513	1075
54	6145	60.004348166295	1075
55	434	20.007236486371	75
55	512	20.327931453708	75
55	651	20.340526540534	71
55	711	20.34922284867	1075
55	818	21.008696275428	1075
55	931	22.008696226052	1075
55	1060	23.00869620921	1075
55	1191	24.008696195558	1075
55	1319	25.008696204946	1075
55	1358	25.013044459134	1075
55	1456	26.008696233222	1075
55	1491	26.013044443267	1075
55	1594	27.008696240974	1075
55	1630	27.013044440734	1075
55	1731	28.00869627753	1075
55	1868	29.008696311396	1075
55	2006	30.008696329552	1075
55	2148	31.008696342306	1075
55	2289	32.008696349776	1075
55	2433	33.00869635309	1075
55	2571	34.008696353116	1075
55	2715	35.00869635019	1075
55	2860	36.008696346058	1075
55	3003	37.008696345182	1075
55	3147	38.008696345802	1075
55	3290	39.008696349798	1075
55	3436	40.008696353126	1075
55	3577	41.008696354188	1075
55	3720	42.008696354252	1075
55	3862	43.008696354386	1075
55	4000	44.008696354332	1075
55	4141	45.008696354296	1075
55	4277	46.008696353854	1075
55	4416	47.008696353236	1075
55	4552	48.008696348094	1075
55	4688	49.008696342008	1075
55	4824	50.008696342042	1075
55	4958	51.008696349912	1075
55	5094	52.008696353868	1075
55	5229	53.008696354294	1075
55	5364	54.00869635428	1075
55	5500	55.008696354076	1075
55	5635	56.008696354004	1075
55	5770	57.00869635252	1075
55	5906	58.008696343946	1075
55	6040	59.00869633026	1075
55	6177	60.00869633259	1075
56	434	20.007236486371	52
56	512	20.327931453708	52
56	651	20.340526540534	48
57	436	20.007236486371	32
57	514	20.327931453708	32
57	653	20.340526540534	28
58	436	20.007236486371	1
58	514	20.327931453708	2
58	653	20.340526540534	3
59	439	20.007236500434	75
59	517	20.327931471941	75
59	583	20.332901539592	71
59	658	20.340526558767	71
59	713	20.349222866903	1075
59	820	21.008696309982	1075
59	933	22.008696283104	1075
59	1062	23.008696270817	1075
59	1193	24.008696249393	1075
59	1293	25.004348229493	1075
59	1321	25.008696229641	1075
59	1424	26.004348219183	1075
59	1451	26.008696224084	1075
59	1560	27.004348218823	1075
59	1589	27.008696221911	1075
59	1726	28.008696234378	1075
59	1863	29.008696262795	1075
59	2001	30.008696288209	1075
59	2141	31.008696303031	1075
59	2284	32.008696326699	1075
59	2428	33.008696349533	1075
59	2573	34.008696363541	1075
59	2717	35.008696373465	1075
59	2864	36.008696379392	1075
59	3006	37.008696382439	1075
59	3151	38.008696383208	1075
59	3293	39.00869638318	1075
59	3438	40.008696381691	1075
59	3579	41.008696380154	1075
59	3724	42.008696381588	1075
59	3864	43.008696384358	1075
59	4005	44.008696386874	1075
59	4143	45.008696388166	1075
59	4280	46.008696388137	1075
59	4418	47.008696387794	1075
59	4554	48.008696385183	1075
59	4690	49.008696382185	1075
59	4826	50.008696381854	1075
59	4960	51.008696385166	1075
59	5096	52.008696383475	1075
59	5231	53.00869637943	1075
59	5366	54.008696379905	1075
59	5502	55.008696382971	1075
59	5637	56.008696387444	1075
59	5773	57.00869638743	1075
59	5908	58.008696383161	1075
59	6042	59.008696376252	1075
59	6179	60.008696377303	1075
60	439	20.007236500434	52
60	517	20.327931471941	52
60	583	20.332901539592	48
60	713	20.349222866903	1052
60	820	21.008696309982	1052
60	933	22.008696283104	1052
60	1062	23.008696270817	1052
60	1193	24.008696249393	1052
60	1321	25.008696229641	1052
60	1451	26.008696224084	1052
60	1589	27.008696221911	1052
60	1726	28.008696234378	1052
60	1863	29.008696262795	1052
60	2001	30.008696288209	1052
60	2141	31.008696303031	1052
60	2284	32.008696326699	1052
60	2428	33.008696349533	1052
60	2573	34.008696363541	1052
60	2717	35.008696373465	1052
60	2864	36.008696379392	1052
60	3006	37.008696382439	1052
60	3151	38.008696383208	1052
60	3293	39.00869638318	1052
60	3438	40.008696381691	1052
60	3579	41.008696380154	1052
60	3724	42.008696381588	1052
60	3864	43.008696384358	1052
60	4005	44.008696386874	1052
60	4143	45.008696388166	1052
60	4280	46.008696388137	1052
60	4418	47.008696387794	1052
60	4554	48.008696385183	1052
60	4690	49.008696382185	1052
60	4826	50.008696381854	1052
60	4960	51.008696385166	1052
60	5096	52.008696383475	1052
60	5231	53.00869637943	1052
60	5366	54.008696379905	1052
60	5502	55.008696382971	1052
60	5637	56.008696387444	1052
60	5773	57.00869638743	1052
60	5908	58.008696383161	1052
60	6042	59.008696376252	1052
60	6179	60.008696377303	1052
61	441	20.007236500434	32
61	519	20.327931471941	32
61	585	20.332901539592	28
62	441	20.007236500434	1
62	519	20.327931471941	2
62	585	20.332901539592	3
63	531	20.33222120004	32
63	600	20.335625955479	28
64	533	20.33222120004	52
64	602	20.335625955479	48
64	715	20.349222866903	1052
64	822	21.008696309982	1052
64	935	22.008696283104	1052
64	1064	23.008696270817	1052
64	1195	24.008696249393	1052
64	1323	25.008696229641	1052
64	1453	26.008696224084	1052
64	1591	27.008696221911	1052
64	1728	28.008696234378	1052
64	1865	29.008696262795	1052
64	2003	30.008696288209	1052
64	2143	31.008696303031	1052
64	2286	32.008696326699	1052
64	2430	33.008696349533	1052
64	2575	34.008696363541	1052
64	2719	35.008696373465	1052
64	2866	36.008696379392	1052
64	3008	37.008696382439	1052
64	3153	38.008696383208	1052
64	3295	39.00869638318	1052
64	3440	40.008696381691	1052
64	3581	41.008696380154	1052
64	3726	42.008696381588	1052
64	3866	43.008696384358	1052
64	4007	44.008696386874	1052
64	4145	45.008696388166	1052
64	4282	46.008696388137	1052
64	4420	47.008696387794	1052
64	4556	48.008696385183	1052
64	4692	49.008696382185	1052
64	4828	50.008696381854	1052
64	4962	51.008696385166	1052
64	5098	52.008696383475	1052
64	5233	53.00869637943	1052
64	5368	54.008696379905	1052
64	5504	55.008696382971	1052
64	5639	56.008696387444	1052
64	5775	57.00869638743	1052
64	5910	58.008696383161	1052
64	6044	59.008696376252	1052
64	6181	60.008696377303	1052
65	533	20.33222120004	52
65	602	20.335625955479	48
65	715	20.349222866903	1052
65	822	21.008696309982	1052
65	935	22.008696283104	1052
65	1064	23.008696270817	1052
65	1195	24.008696249393	1052
65	1323	25.008696229641	1052
65	1453	26.008696224084	1052
65	1591	27.008696221911	1052
65	1728	28.008696234378	1052
65	1865	29.008696262795	1052
65	2003	30.008696288209	1052
65	2143	31.008696303031	1052
65	2286	32.008696326699	1052
65	2430	33.008696349533	1052
65	2575	34.008696363541	1052
65	2719	35.008696373465	1052
65	2866	36.008696379392	1052
65	3008	37.008696382439	1052
65	3153	38.008696383208	1052
65	3295	39.00869638318	1052
65	3440	40.008696381691	1052
65	3581	41.008696380154	1052
65	3726	42.008696381588	1052
65	3866	43.008696384358	1052
65	4007	44.008696386874	1052
65	4145	45.008696388166	1052
65	4282	46.008696388137	1052
65	4420	47.008696387794	1052
65	4556	48.008696385183	1052
65	4692	49.008696382185	1052
65	4828	50.008696381854	1052
65	4962	51.008696385166	1052
65	5098	52.008696383475	1052
65	5233	53.00869637943	1052
65	5368	54.008696379905	1052
65	5504	55.008696382971	1052
65	5639	56.008696387444	1052
65	5775	57.00869638743	1052
65	5910	58.008696383161	1052
65	6044	59.008696376252	1052
65	6181	60.008696377303	1052
66	533	20.33222120004	1
66	533	20.33222120004	0
66	602	20.335625955479	1
66	602	20.335625955479	0
66	715	20.349222866903	1
66	715	20.349222866903	0
66	822	21.008696309982	1
66	822	21.008696309982	0
66	935	22.008696283104	1
66	935	22.008696283104	0
66	1064	23.008696270817	1
66	1064	23.008696270817	0
66	1195	24.008696249393	1
66	1195	24.008696249393	0
66	1323	25.008696229641	1
66	1323	25.008696229641	0
66	1453	26.008696224084	1
66	1453	26.008696224084	0
66	1591	27.008696221911	1
66	1591	27.008696221911	0
66	1728	28.008696234378	1
66	1728	28.008696234378	0
66	1865	29.008696262795	1
66	1865	29.008696262795	0
66	2003	30.008696288209	1
66	2003	30.008696288209	0
66	2143	31.008696303031	1
66	2143	31.008696303031	0
66	2286	32.008696326699	1
66	2286	32.008696326699	0
66	2430	33.008696349533	1
66	2430	33.008696349533	0
66	2575	34.008696363541	1
66	2575	34.008696363541	0
66	2719	35.008696373465	1
66	2719	35.008696373465	0
66	2866	36.008696379392	1
66	2866	36.008696379392	0
66	3008	37.008696382439	1
66	3008	37.008696382439	0
66	3153	38.008696383208	1
66	3153	38.008696383208	0
66	3295	39.00869638318	1
66	3295	39.00869638318	0
66	3440	40.008696381691	1
66	3440	40.008696381691	0
66	3581	41.008696380154	1
66	3581	41.008696380154	0
66	3726	42.008696381588	1
66	3726	42.008696381588	0
66	3866	43.008696384358	1
66	3866	43.008696384358	0
66	4007	44.008696386874	1
66	4007	44.008696386874	0
66	4145	45.008696388166	1
66	4145	45.008696388166	0
66	4282	46.008696388137	1
66	4282	46.008696388137	0
66	4420	47.008696387794	1
66	4420	47.008696387794	0
66	4556	48.008696385183	1
66	4556	48.008696385183	0
66	4692	49.008696382185	1
66	4692	49.008696382185	0
66	4828	50.008696381854	1
66	4828	50.008696381854	0
66	4962	51.008696385166	1
66	4962	51.008696385166	0
66	5098	52.008696383475	1
66	5098	52.008696383475	0
66	5233	53.00869637943	1
66	5233	53.00869637943	0
66	5368	54.008696379905	1
66	5368	54.008696379905	0
66	5504	55.008696382971	1
66	5504	55.008696382971	0
66	5639	56.008696387444	1
66	5639	56.008696387444	0
66	5775	57.00869638743	1
66	5775	57.00869638743	0
66	5910	58.008696383161	1
66	5910	58.008696383161	0
66	6044	59.008696376252	1
66	6044	59.008696376252	0
66	6181	60.008696377303	1
66	6181	60.008696377303	0
67	533	20.33222120004	52
67	602	20.335625955479	48
67	715	20.349222866903	1052
67	822	21.008696309982	1052
67	935	22.008696283104	1052
67	1064	23.008696270817	1052
67	1195	24.008696249393	1052
67	1323	25.008696229641	1052
67	1453	26.008696224084	1052
67	1591	27.008696221911	1052
67	1728	28.008696234378	1052
67	1865	29.008696262795	1052
67	2003	30.008696288209	1052
67	2143	31.008696303031	1052
67	2286	32.008696326699	1052
67	2430	33.008696349533	1052
67	2575	34.008696363541	1052
67	2719	35.008696373465	1052
67	2866	36.008696379392	1052
67	3008	37.008696382439	1052
67	3153	38.008696383208	1052
67	3295	39.00869638318	1052
67	3440	40.008696381691	1052
67	3581	41.008696380154	1052
67	3726	42.008696381588	1052
67	3866	43.008696384358	1052
67	4007	44.008696386874	1052
67	4145	45.008696388166	1052
67	4282	46.008696388137	1052
67	4420	47.008696387794	1052
67	4556	48.008696385183	1052
67	4692	49.008696382185	1052
67	4828	50.008696381854	1052
67	4962	51.008696385166	1052
67	5098	52.008696383475	1052
67	5233	53.00869637943	1052
67	5368	54.008696379905	1052
67	5504	55.008696382971	1052
67	5639	56.008696387444	1052
67	5775	57.00869638743	1052
67	5910	58.008696383161	1052
67	6044	59.008696376252	1052
67	6181	60.008696377303	1052
68	533	20.33222120004	0
68	602	20.335625955479	0
68	715	20.349222866903	0
68	822	21.008696309982	0
68	935	22.008696283104	0
68	1064	23.008696270817	0
68	1195	24.008696249393	0
68	1323	25.008696229641	0
68	1453	26.008696224084	0
68	1591	27.008696221911	0
68	1728	28.008696234378	0
68	1865	29.008696262795	0
68	2003	30.008696288209	0
68	2143	31.008696303031	0
68	2286	32.008696326699	0
68	2430	33.008696349533	0
68	2575	34.008696363541	0
68	2719	35.008696373465	0
68	2866	36.008696379392	0
68	3008	37.008696382439	0
68	3153	38.008696383208	0
68	3295	39.00869638318	0
68	3440	40.008696381691	0
68	3581	41.008696380154	0
68	3726	42.008696381588	0
68	3866	43.008696384358	0
68	4007	44.008696386874	0
68	4145	45.008696388166	0
68	4282	46.008696388137	0
68	4420	47.008696387794	0
68	4556	48.008696385183	0
68	4692	49.008696382185	0
68	4828	50.008696381854	0
68	4962	51.008696385166	0
68	5098	52.008696383475	0
68	5233	53.00869637943	0
68	5368	54.008696379905	0
68	5504	55.008696382971	0
68	5639	56.008696387444	0
68	5775	57.00869638743	0
68	5910	58.008696383161	0
68	6044	59.008696376252	0
68	6181	60.008696377303	0
69	533	20.33222120004	75
69	602	20.335625955479	71
69	715	20.349222866903	1075
69	822	21.008696309982	1075
69	935	22.008696283104	1075
69	1064	23.008696270817	1075
69	1195	24.008696249393	1075
69	1323	25.008696229641	1075
[...]
125	6246	53.8	0
125	6246	53.9	0
125	6246	54	0
125	6246	54.1	0
125	6246	54.2	0
125	6246	54.3	0
125	6246	54.4	0
125	6246	54.5	0
125	6246	54.6	0
125	6246	54.7	0
125	6246	54.8	0
125	6246	54.9	0
125	6246	55	0
125	6246	55.1	0
125	6246	55.2	0
125	6246	55.3	0
125	6246	55.4	0
125	6246	55.5	0
125	6246	55.6	0
125	6246	55.7	0
125	6246	55.8	0
125	6246	55.9	0
125	6246	56	0
125	6246	56.1	0
125	6246	56.2	0
125	6246	56.3	0
125	6246	56.4	0
125	6246	56.5	0
125	6246	56.6	0
125	6246	56.7	0
125	6246	56.8	0
125	6246	56.9	0
125	6246	57	0
125	6246	57.1	0
125	6246	57.2	0
125	6246	57.3	0
125	6246	57.4	0
125	6246	57.5	0
125	6246	57.6	0
125	6246	57.7	0
125	6246	57.8	0
125	6246	57.9	0
125	6246	58	0
125	6246	58.1	0
125	6246	58.2	0
125	6246	58.3	0
125	6246	58.4	0
125	6246	58.5	0
125	6246	58.6	0
125	6246	58.7	0
125	6246	58.8	0
125	6246	58.9	0
125	6246	59	0
125	6246	59.1	0
125	6246	59.2	0
125	6246	59.3	0
125	6246	59.4	0
125	6246	59.5	0
125	6246	59.6	0
125	6246	59.7	0
125	6246	59.8	0
125	6246	59.9	0
125	6246	60	0
125	6246	60.1	0
125	6246	60.2	0
125	6246	60.3	0
125	6246	60.4	0
125	6246	60.5	0
126	6246	0.1	0
126	6246	0.2	0
126	6246	0.3	0
126	6246	0.4	0
126	6246	0.5	0
126	6246	0.6	0
126	6246	0.7	0
126	6246	0.8	0
126	6246	0.9	0
126	6246	1	0
126	6246	1.1	0
126	6246	1.2	0
126	6246	1.3	0
126	6246	1.4	0
126	6246	1.5	0
126	6246	1.6	0
126	6246	1.7	0
126	6246	1.8	0
126	6246	1.9	0
126	6246	2	0
126	6246	2.1	0
126	6246	2.2	0
126	6246	2.3	0
126	6246	2.4	0
126	6246	2.5	0
126	6246	2.6	0
126	6246	2.7	0
126	6246	2.8	0
126	6246	2.9	0
126	6246	3	0
126	6246	3.1	0
126	6246	3.2	0
126	6246	3.3	0
126	6246	3.4	0
126	6246	3.5	0
126	6246	3.6	0
126	6246	3.7	0
126	6246	3.8	0
126	6246	3.9	0
126	6246	4	0
126	6246	4.1	0
126	6246	4.2	0
126	6246	4.3	0
126	6246	4.4	0
126	6246	4.5	0
126	6246	4.6	0
126	6246	4.7	0
126	6246	4.8	0
126	6246	4.9	0
126	6246	5	0
126	6246	5.1	0
126	6246	5.2	0
126	6246	5.3	0
126	6246	5.4	0
126	6246	5.5	0
126	6246	5.6	0
126	6246	5.7	0
126	6246	5.8	0
126	6246	5.9	0
126	6246	6	0
126	6246	6.1	0
126	6246	6.2	0
126	6246	6.3	0
126	6246	6.4	0
126	6246	6.5	0
126	6246	6.6	0
126	6246	6.7	0
126	6246	6.8	0
126	6246	6.9	0
126	6246	7	0
126	6246	7.1	0
126	6246	7.2	0
126	6246	7.3	0
126	6246	7.4	0
126	6246	7.5	0
126	6246	7.6	0
126	6246	7.7	0
126	6246	7.8	0
126	6246	7.9	0
126	6246	8	0
126	6246	8.1	0
126	6246	8.2	0
126	6246	8.3	0
126	6246	8.4	0
126	6246	8.5	0
126	6246	8.6	0
126	6246	8.7	0
126	6246	8.8	0
126	6246	8.9	0
126	6246	9	0
126	6246	9.1	0
126	6246	9.2	0
126	6246	9.3	0
126	6246	9.4	0
126	6246	9.5	0
126	6246	9.6	0
126	6246	9.7	0
126	6246	9.8	0
126	6246	9.9	0
126	6246	10	0
126	6246	10.1	0
126	6246	10.2	0
126	6246	10.3	0
126	6246	10.4	0
126	6246	10.5	0
126	6246	10.6	0
126	6246	10.7	0
126	6246	10.8	0
126	6246	10.9	0
126	6246	11	0
126	6246	11.1	0
126	6246	11.2	0
126	6246	11.3	0
126	6246	11.4	0
126	6246	11.5	0
126	6246	11.6	0
126	6246	11.7	0
126	6246	11.8	0
126	6246	11.9	0
126	6246	12	0
126	6246	12.1	0
126	6246	12.2	0
126	6246	12.3	0
126	6246	12.4	0
126	6246	12.5	0
126	6246	12.6	0
126	6246	12.7	0
126	6246	12.8	0
126	6246	12.9	0
126	6246	13	0
126	6246	13.1	0
126	6246	13.2	0
126	6246	13.3	0
126	6246	13.4	0
126	6246	13.5	0
126	6246	13.6	0
126	6246	13.7	0
126	6246	13.8	0
126	6246	13.9	0
126	6246	14	0
126	6246	14.1	0
126	6246	14.2	0
126	6246	14.3	0
126	6246	14.4	0
126	6246	14.5	0
126	6246	14.6	0
126	6246	14.7	0
126	6246	14.8	0
126	6246	14.9	0
126	6246	15	0
126	6246	15.1	0
126	6246	15.2	0
126	6246	15.3	0
126	6246	15.4	0
126	6246	15.5	0
126	6246	15.6	0
126	6246	15.7	0
126	6246	15.8	0
126	6246	15.9	0
126	6246	16	0
126	6246	16.1	0
126	6246	16.2	0
126	6246	16.3	0
126	6246	16.4	0
126	6246	16.5	0
126	6246	16.6	0
126	6246	16.7	0
126	6246	16.8	0
126	6246	16.9	0
126	6246	17	0
126	6246	17.1	0
126	6246	17.2	0
126	6246	17.3	0
126	6246	17.4	0
126	6246	17.5	0
126	6246	17.6	0
126	6246	17.7	0
126	6246	17.8	0
126	6246	17.9	0
126	6246	18	0
126	6246	18.1	0
126	6246	18.2	0
126	6246	18.3	0
126	6246	18.4	0
126	6246	18.5	0
126	6246	18.6	0
126	6246	18.7	0
126	6246	18.8	0
126	6246	18.9	0
126	6246	19	0
126	6246	19.1	0
126	6246	19.2	0
126	6246	19.3	0
126	6246	19.4	0
126	6246	19.5	0
126	6246	19.6	0
126	6246	19.7	0
126	6246	19.8	0
126	6246	19.9	0
126	6246	20	0
126	6246	20.1	0
126	6246	20.2	0
126	6246	20.3	0
126	6246	20.4	0
126	6246	20.5	0
126	6246	20.6	0
126	6246	20.7	0
126	6246	20.8	0
126	6246	20.9	0
126	6246	21	0
126	6246	21.1	0
126	6246	21.2	0
126	6246	21.3	0
126	6246	21.4	0
126	6246	21.5	0
126	6246	21.6	0
126	6246	21.7	0
126	6246	21.8	0
126	6246	21.9	0
126	6246	22	0
126	6246	22.1	0
126	6246	22.2	0
126	6246	22.3	0
126	6246	22.4	0
126	6246	22.5	0
126	6246	22.6	0
126	6246	22.7	0
126	6246	22.8	0
126	6246	22.9	0
126	6246	23	0
126	6246	23.1	0
126	6246	23.2	0
126	6246	23.3	0
126	6246	23.4	0
126	6246	23.5	0
126	6246	23.6	0
126	6246	23.7	0
126	6246	23.8	0
126	6246	23.9	0
126	6246	24	0
126	6246	24.1	0
126	6246	24.2	0
126	6246	24.3	0
126	6246	24.4	0
126	6246	24.5	0
126	6246	24.6	0
126	6246	24.7	0
126	6246	24.8	0
126	6246	24.9	0
126	6246	25	0
126	6246	25.1	0
126	6246	25.2	0
126	6246	25.3	0
126	6246	25.4	0
126	6246	25.5	0
126	6246	25.6	0
126	6246	25.7	0
126	6246	25.8	0
126	6246	25.9	0
126	6246	26	0
126	6246	26.1	0
126	6246	26.2	0
126	6246	26.3	0
126	6246	26.4	0
126	6246	26.5	0
126	6246	26.6	0
126	6246	26.7	0
126	6246	26.8	0
126	6246	26.9	0
126	6246	27	0
126	6246	27.1	0
126	6246	27.2	0
126	6246	27.3	0
126	6246	27.4	0
126	6246	27.5	0
126	6246	27.6	0
126	6246	27.7	0
126	6246	27.8	0
126	6246	27.9	0
126	6246	28	0
126	6246	28.1	0
126	6246	28.2	0
126	6246	28.3	0
126	6246	28.4	0
126	6246	28.5	0
126	6246	28.6	0
126	6246	28.7	0
126	6246	28.8	0
126	6246	28.9	0
126	6246	29	0
126	6246	29.1	0
126	6246	29.2	0
126	6246	29.3	0
126	6246	29.4	0
126	6246	29.5	0
126	6246	29.6	0
126	6246	29.7	0
126	6246	29.8	0
126	6246	29.9	0
126	6246	30	0
126	6246	30.1	0
126	6246	30.2	0
126	6246	30.3	0
126	6246	30.4	0
126	6246	30.5	0
126	6246	30.6	0
126	6246	30.7	0
126	6246	30.8	0
126	6246	30.9	0
126	6246	31	0
126	6246	31.1	0
126	6246	31.2	0
126	6246	31.3	0
126	6246	31.4	0
126	6246	31.5	0
126	6246	31.6	0
126	6246	31.7	0
126	6246	31.8	0
126	6246	31.9	0
126	6246	32	0
126	6246	32.1	0
126	6246	32.2	0
126	6246	32.3	0
126	6246	32.4	0
126	6246	32.5	0
126	6246	32.6	0
126	6246	32.7	0
126	6246	32.8	0
126	6246	32.9	0
126	6246	33	0
126	6246	33.1	0
126	6246	33.2	0
126	6246	33.3	0
126	6246	33.4	0
126	6246	33.5	0
126	6246	33.6	0
126	6246	33.7	0
126	6246	33.8	0
126	6246	33.9	0
126	6246	34	0
126	6246	34.1	0
126	6246	34.2	0
126	6246	34.3	0
126	6246	34.4	0
126	6246	34.5	0
126	6246	34.6	0
126	6246	34.7	0
126	6246	34.8	0
126	6246	34.9	0
126	6246	35	0
126	6246	35.1	0
126	6246	35.2	0
126	6246	35.3	0
126	6246	35.4	0
126	6246	35.5	0
126	6246	35.6	0
126	6246	35.7	0
126	6246	35.8	0
126	6246	35.9	0
126	6246	36	0
126	6246	36.1	0
126	6246	36.2	0
126	6246	36.3	0
126	6246	36.4	0
126	6246	36.5	0
126	6246	36.6	0
126	6246	36.7	0
126	6246	36.8	0
126	6246	36.9	0
126	6246	37	0
126	6246	37.1	0
126	6246	37.2	0
126	6246	37.3	0
126	6246	37.4	0
126	6246	37.5	0
126	6246	37.6	0
126	6246	37.7	0
126	6246	37.8	0
126	6246	37.9	0
126	6246	38	0
126	6246	38.1	0
126	6246	38.2	0
126	6246	38.3	0
126	6246	38.4	0
126	6246	38.5	0
126	6246	38.6	0
126	6246	38.7	0
126	6246	38.8	0
126	6246	38.9	0
126	6246	39	0
126	6246	39.1	0
126	6246	39.2	0
126	6246	39.3	0
126	6246	39.4	0
126	6246	39.5	0
126	6246	39.6	0
126	6246	39.7	0
126	6246	39.8	0
126	6246	39.9	0
126	6246	40	0
126	6246	40.1	0
126	6246	40.2	0
126	6246	40.3	0
126	6246	40.4	0
126	6246	40.5	0
126	6246	40.6	0
126	6246	40.7	0
126	6246	40.8	0
126	6246	40.9	0
126	6246	41	0
126	6246	41.1	0
126	6246	41.2	0
126	6246	41.3	0
126	6246	41.4	0
126	6246	41.5	0
126	6246	41.6	0
126	6246	41.7	0
126	6246	41.8	0
126	6246	41.9	0
126	6246	42	0
126	6246	42.1	0
126	6246	42.2	0
126	6246	42.3	0
126	6246	42.4	0
126	6246	42.5	0
126	6246	42.6	0
126	6246	42.7	0
126	6246	42.8	0
126	6246	42.9	0
126	6246	43	0
126	6246	43.1	0
126	6246	43.2	0
126	6246	43.3	0
126	6246	43.4	0
126	6246	43.5	0
126	6246	43.6	0
126	6246	43.7	0
126	6246	43.8	0
126	6246	43.9	0
126	6246	44	0
126	6246	44.1	0
126	6246	44.2	0
126	6246	44.3	0
126	6246	44.4	0
126	6246	44.5	0
126	6246	44.6	0
126	6246	44.7	0
126	6246	44.8	0
126	6246	44.9	0
126	6246	45	0
126	6246	45.1	0
126	6246	45.2	0
126	6246	45.3	0
126	6246	45.4	0
126	6246	45.5	0
126	6246	45.6	0
126	6246	45.7	0
126	6246	45.8	0
126	6246	45.9	0
126	6246	46	0
126	6246	46.1	0
126	6246	46.2	0
126	6246	46.3	0
126	6246	46.4	0
126	6246	46.5	0
126	6246	46.6	0
126	6246	46.7	0
126	6246	46.8	0
126	6246	46.9	0
126	6246	47	0
126	6246	47.1	0
126	6246	47.2	0
126	6246	47.3	0
126	6246	47.4	0
126	6246	47.5	0
126	6246	47.6	0
126	6246	47.7	0
126	6246	47.8	0
126	6246	47.9	0
126	6246	48	0
126	6246	48.1	0
126	6246	48.2	0
126	6246	48.3	0
126	6246	48.4	0
126	6246	48.5	0
126	6246	48.6	0
126	6246	48.7	0
126	6246	48.8	0
126	6246	48.9	0
126	6246	49	0
126	6246	49.1	0
126	6246	49.2	0
126	6246	49.3	0
126	6246	49.4	0
126	6246	49.5	0
126	6246	49.6	0
126	6246	49.7	0
126	6246	49.8	0
126	6246	49.9	0
126	6246	50	0
126	6246	50.1	0
126	6246	50.2	0
126	6246	50.3	0
126	6246	50.4	0
126	6246	50.5	0
126	6246	50.6	0
126	6246	50.7	0
126	6246	50.8	0
126	6246	50.9	0
126	6246	51	0
126	6246	51.1	0
126	6246	51.2	0
126	6246	51.3	0
126	6246	51.4	0
126	6246	51.5	0
126	6246	51.6	0
126	6246	51.7	0
126	6246	51.8	0
126	6246	51.9	0
126	6246	52	0
126	6246	52.1	0
126	6246	52.2	0
126	6246	52.3	0
126	6246	52.4	0
126	6246	52.5	0
126	6246	52.6	0
126	6246	52.7	0
126	6246	52.8	0
126	6246	52.9	0
126	6246	53	0
126	6246	53.1	0
126	6246	53.2	0
126	6246	53.3	0
126	6246	53.4	0
126	6246	53.5	0
126	6246	53.6	0
126	6246	53.7	0
126	6246	53.8	0
126	6246	53.9	0
126	6246	54	0
126	6246	54.1	0
126	6246	54.2	0
126	6246	54.3	0
126	6246	54.4	0
126	6246	54.5	0
126	6246	54.6	0
126	6246	54.7	0
126	6246	54.8	0
126	6246	54.9	0
126	6246	55	0
126	6246	55.1	0
126	6246	55.2	0
126	6246	55.3	0
126	6246	55.4	0
126	6246	55.5	0
126	6246	55.6	0
126	6246	55.7	0
126	6246	55.8	0
126	6246	55.9	0
126	6246	56	0
126	6246	56.1	0
126	6246	56.2	0
126	6246	56.3	0
126	6246	56.4	0
126	6246	56.5	0
126	6246	56.6	0
126	6246	56.7	0
126	6246	56.8	0
126	6246	56.9	0
126	6246	57	0
126	6246	57.1	0
126	6246	57.2	0
126	6246	57.3	0
126	6246	57.4	0
126	6246	57.5	0
126	6246	57.6	0
126	6246	57.7	0
126	6246	57.8	0
126	6246	57.9	0
126	6246	58	0
126	6246	58.1	0
126	6246	58.2	0
126	6246	58.3	0
126	6246	58.4	0
126	6246	58.5	0
126	6246	58.6	0
126	6246	58.7	0
126	6246	58.8	0
126	6246	58.9	0
126	6246	59	0
126	6246	59.1	0
126	6246	59.2	0
126	6246	59.3	0
126	6246	59.4	0
126	6246	59.5	0
126	6246	59.6	0
126	6246	59.7	0
126	6246	59.8	0
126	6246	59.9	0
126	6246	60	0
126	6246	60.1	0
126	6246	60.2	0
126	6246	60.3	0
126	6246	60.4	0
126	6246	60.5	0
127	6246	0.1	0
127	6246	0.2	0
127	6246	0.3	0
127	6246	0.4	0
127	6246	0.5	0
127	6246	0.6	0
127	6246	0.7	0
127	6246	0.8	0
127	6246	0.9	0
127	6246	1	0
127	6246	1.1	0
127	6246	1.2	0
127	6246	1.3	0
127	6246	1.4	0
127	6246	1.5	0
127	6246	1.6	0
127	6246	1.7	0
127	6246	1.8	0
127	6246	1.9	0
127	6246	2	0
127	6246	2.1	0
127	6246	2.2	0
127	6246	2.3	0
127	6246	2.4	0
127	6246	2.5	0
127	6246	2.6	0
127	6246	2.7	0
127	6246	2.8	0
127	6246	2.9	0
127	6246	3	0
127	6246	3.1	0
127	6246	3.2	0
127	6246	3.3	0
127	6246	3.4	0
127	6246	3.5	0
127	6246	3.6	0
127	6246	3.7	0
127	6246	3.8	0
127	6246	3.9	0
127	6246	4	0
127	6246	4.1	0
127	6246	4.2	0
127	6246	4.3	0
127	6246	4.4	0
127	6246	4.5	0
127	6246	4.6	0
127	6246	4.7	0
127	6246	4.8	0
127	6246	4.9	0
127	6246	5	0
127	6246	5.1	0
127	6246	5.2	0
127	6246	5.3	0
127	6246	5.4	0
127	6246	5.5	0
127	6246	5.6	0
127	6246	5.7	0
127	6246	5.8	0
127	6246	5.9	0
127	6246	6	0
127	6246	6.1	0
127	6246	6.2	0
127	6246	6.3	0
127	6246	6.4	0
127	6246	6.5	0
127	6246	6.6	0
127	6246	6.7	0
127	6246	6.8	0
127	6246	6.9	0
127	6246	7	0
127	6246	7.1	0
127	6246	7.2	0
127	6246	7.3	0
127	6246	7.4	0
127	6246	7.5	0
127	6246	7.6	0
127	6246	7.7	0
127	6246	7.8	0
127	6246	7.9	0
127	6246	8	0
127	6246	8.1	0
127	6246	8.2	0
127	6246	8.3	0
127	6246	8.4	0
127	6246	8.5	0
127	6246	8.6	0
127	6246	8.7	0
127	6246	8.8	0
127	6246	8.9	0
127	6246	9	0
127	6246	9.1	0
127	6246	9.2	0
127	6246	9.3	0
127	6246	9.4	0
127	6246	9.5	0
127	6246	9.6	0
127	6246	9.7	0
127	6246	9.8	0
127	6246	9.9	0
127	6246	10	0
127	6246	10.1	0
127	6246	10.2	0
127	6246	10.3	0
127	6246	10.4	0
127	6246	10.5	0
127	6246	10.6	0
127	6246	10.7	0
127	6246	10.8	0
127	6246	10.9	0
127	6246	11	0
127	6246	11.1	0
127	6246	11.2	0
127	6246	11.3	0
127	6246	11.4	0
127	6246	11.5	0
127	6246	11.6	0
127	6246	11.7	0
127	6246	11.8	0
127	6246	11.9	0
127	6246	12	0
127	6246	12.1	0
127	6246	12.2	0
127	6246	12.3	0
127	6246	12.4	0
127	6246	12.5	0
127	6246	12.6	0
127	6246	12.7	0
127	6246	12.8	0
127	6246	12.9	0
127	6246	13	0
127	6246	13.1	0
127	6246	13.2	0
127	6246	13.3	0
127	6246	13.4	0
127	6246	13.5	0
127	6246	13.6	0
127	6246	13.7	0
127	6246	13.8	0
127	6246	13.9	0
127	6246	14	0
127	6246	14.1	0
127	6246	14.2	0
127	6246	14.3	0
127	6246	14.4	0
127	6246	14.5	0
127	6246	14.6	0
127	6246	14.7	0
127	6246	14.8	0
127	6246	14.9	0
127	6246	15	0
127	6246	15.1	0
127	6246	15.2	0
127	6246	15.3	0
127	6246	15.4	0
127	6246	15.5	0
127	6246	15.6	0
127	6246	15.7	0
127	6246	15.8	0
127	6246	15.9	0
127	6246	16	0
127	6246	16.1	0
127	6246	16.2	0
127	6246	16.3	0
127	6246	16.4	0
127	6246	16.5	0
127	6246	16.6	0
127	6246	16.7	0
127	6246	16.8	0
127	6246	16.9	0
127	6246	17	0
127	6246	17.1	0
127	6246	17.2	0
127	6246	17.3	0
127	6246	17.4	0
127	6246	17.5	0
127	6246	17.6	0
127	6246	17.7	0
127	6246	17.8	0
127	6246	17.9	0
127	6246	18	0
127	6246	18.1	0
127	6246	18.2	0
127	6246	18.3	0
127	6246	18.4	0
127	6246	18.5	0
127	6246	18.6	0
127	6246	18.7	0
127	6246	18.8	0
127	6246	18.9	0
127	6246	19	0
127	6246	19.1	0
127	6246	19.2	0
127	6246	19.3	0
127	6246	19.4	0
127	6246	19.5	0
127	6246	19.6	0
127	6246	19.7	0
127	6246	19.8	0
127	6246	19.9	0
127	6246	20	0
127	6246	20.1	0
127	6246	20.2	0
127	6246	20.3	0
127	6246	20.4	0
127	6246	20.5	0
127	6246	20.6	0
127	6246	20.7	0
127	6246	20.8	0
127	6246	20.9	0
127	6246	21	0
127	6246	21.1	0
127	6246	21.2	0
127	6246	21.3	0
127	6246	21.4	0
127	6246	21.5	0
127	6246	21.6	0
127	6246	21.7	0
127	6246	21.8	0
127	6246	21.9	0
127	6246	22	0
127	6246	22.1	0
127	6246	22.2	0
127	6246	22.3	0
127	6246	22.4	0
127	6246	22.5	0
127	6246	22.6	0
127	6246	22.7	0
127	6246	22.8	0
127	6246	22.9	0
127	6246	23	0
127	6246	23.1	0
127	6246	23.2	0
127	6246	23.3	0
127	6246	23.4	0
127	6246	23.5	0
127	6246	23.6	0
127	6246	23.7	0
127	6246	23.8	0
127	6246	23.9	0
127	6246	24	0
127	6246	24.1	0
127	6246	24.2	0
127	6246	24.3	0
127	6246	24.4	0
127	6246	24.5	0
127	6246	24.6	0
127	6246	24.7	0
127	6246	24.8	0
127	6246	24.9	0
127	6246	25	0
127	6246	25.1	0
127	6246	25.2	0
127	6246	25.3	0
127	6246	25.4	0
127	6246	25.5	0
127	6246	25.6	0
127	6246	25.7	0
127	6246	25.8	0
127	6246	25.9	0
127	6246	26	0
127	6246	26.1	0
127	6246	26.2	0
127	6246	26.3	0
127	6246	26.4	0
127	6246	26.5	0
127	6246	26.6	0
127	6246	26.7	0
127	6246	26.8	0
127	6246	26.9	0
127	6246	27	0
127	6246	27.1	0
127	6246	27.2	0
127	6246	27.3	0
127	6246	27.4	0
127	6246	27.5	0
127	6246	27.6	0
127	6246	27.7	0
127	6246	27.8	0
127	6246	27.9	0
127	6246	28	0
127	6246	28.1	0
127	6246	28.2	0
127	6246	28.3	0
127	6246	28.4	0
127	6246	28.5	0
127	6246	28.6	0
127	6246	28.7	0
127	6246	28.8	0
127	6246	28.9	0
127	6246	29	0
127	6246	29.1	0
127	6246	29.2	0
127	6246	29.3	0
127	6246	29.4	0
127	6246	29.5	0
127	6246	29.6	0
127	6246	29.7	0
127	6246	29.8	0
127	6246	29.9	0
127	6246	30	0
127	6246	30.1	0
127	6246	30.2	0
127	6246	30.3	0
127	6246	30.4	0
127	6246	30.5	0
127	6246	30.6	0
127	6246	30.7	0
127	6246	30.8	0
127	6246	30.9	0
127	6246	31	0
127	6246	31.1	0
127	6246	31.2	0
127	6246	31.3	0
127	6246	31.4	0
127	6246	31.5	0
127	6246	31.6	0
127	6246	31.7	0
127	6246	31.8	0
127	6246	31.9	0
127	6246	32	0
127	6246	32.1	0
127	6246	32.2	0
127	6246	32.3	0
127	6246	32.4	0
127	6246	32.5	0
127	6246	32.6	0
127	6246	32.7	0
127	6246	32.8	0
127	6246	32.9	0
127	6246	33	0
127	6246	33.1	0
127	6246	33.2	0
127	6246	33.3	0
127	6246	33.4	0
127	6246	33.5	0
127	6246	33.6	0
127	6246	33.7	0
127	6246	33.8	0
127	6246	33.9	0
127	6246	34	0
127	6246	34.1	0
127	6246	34.2	0
127	6246	34.3	0
127	6246	34.4	0
127	6246	34.5	0
127	6246	34.6	0
127	6246	34.7	0
127	6246	34.8	0
127	6246	34.9	0
127	6246	35	0
127	6246	35.1	0
127	6246	35.2	0
127	6246	35.3	0
127	6246	35.4	0
127	6246	35.5	0
127	6246	35.6	0
127	6246	35.7	0
127	6246	35.8	0
127	6246	35.9	0
127	6246	36	0
127	6246	36.1	0
127	6246	36.2	0
127	6246	36.3	0
127	6246	36.4	0
127	6246	36.5	0
127	6246	36.6	0
127	6246	36.7	0
127	6246	36.8	0
127	6246	36.9	0
127	6246	37	0
127	6246	37.1	0
127	6246	37.2	0
127	6246	37.3	0
127	6246	37.4	0
127	6246	37.5	0
127	6246	37.6	0
127	6246	37.7	0
127	6246	37.8	0
127	6246	37.9	0
127	6246	38	0
127	6246	38.1	0
127	6246	38.2	0
127	6246	38.3	0
127	6246	38.4	0
127	6246	38.5	0
127	6246	38.6	0
127	6246	38.7	0
127	6246	38.8	0
127	6246	38.9	0
127	6246	39	0
127	6246	39.1	0
127	6246	39.2	0
127	6246	39.3	0
127	6246	39.4	0
127	6246	39.5	0
127	6246	39.6	0
127	6246	39.7	0
127	6246	39.8	0
127	6246	39.9	0
127	6246	40	0
127	6246	40.1	0
127	6246	40.2	0
127	6246	40.3	0
127	6246	40.4	0
127	6246	40.5	0
127	6246	40.6	0
127	6246	40.7	0
127	6246	40.8	0
127	6246	40.9	0
127	6246	41	0
127	6246	41.1	0
127	6246	41.2	0
127	6246	41.3	0
127	6246	41.4	0
127	6246	41.5	0
127	6246	41.6	0
127	6246	41.7	0
127	6246	41.8	0
127	6246	41.9	0
127	6246	42	0
127	6246	42.1	0
127	6246	42.2	0
127	6246	42.3	0
127	6246	42.4	0
127	6246	42.5	0
127	6246	42.6	0
127	6246	42.7	0
127	6246	42.8	0
127	6246	42.9	0
127	6246	43	0
127	6246	43.1	0
127	6246	43.2	0
127	6246	43.3	0
127	6246	43.4	0
127	6246	43.5	0
127	6246	43.6	0
127	6246	43.7	0
127	6246	43.8	0
127	6246	43.9	0
127	6246	44	0
127	6246	44.1	0
127	6246	44.2	0
127	6246	44.3	0
127	6246	44.4	0
127	6246	44.5	0
127	6246	44.6	0
127	6246	44.7	0
127	6246	44.8	0
127	6246	44.9	0
127	6246	45	0
127	6246	45.1	0
127	6246	45.2	0
127	6246	45.3	0
127	6246	45.4	0
127	6246	45.5	0
127	6246	45.6	0
127	6246	45.7	0
127	6246	45.8	0
127	6246	45.9	0
127	6246	46	0
127	6246	46.1	0
127	6246	46.2	0
127	6246	46.3	0
127	6246	46.4	0
127	6246	46.5	0
127	6246	46.6	0
127	6246	46.7	0
127	6246	46.8	0
127	6246	46.9	0
127	6246	47	0
127	6246	47.1	0
127	6246	47.2	0
127	6246	47.3	0
127	6246	47.4	0
127	6246	47.5	0
127	6246	47.6	0
127	6246	47.7	0
127	6246	47.8	0
127	6246	47.9	0
127	6246	48	0
127	6246	48.1	0
127	6246	48.2	0
127	6246	48.3	0
127	6246	48.4	0
127	6246	48.5	0
127	6246	48.6	0
127	6246	48.7	0
127	6246	48.8	0
127	6246	48.9	0
127	6246	49	0
127	6246	49.1	0
127	6246	49.2	0
127	6246	49.3	0
127	6246	49.4	0
127	6246	49.5	0
127	6246	49.6	0
127	6246	49.7	0
127	6246	49.8	0
127	6246	49.9	0
127	6246	50	0
127	6246	50.1	0
127	6246	50.2	0
127	6246	50.3	0
127	6246	50.4	0
127	6246	50.5	0
127	6246	50.6	0
127	6246	50.7	0
127	6246	50.8	0
127	6246	50.9	0
127	6246	51	0
127	6246	51.1	0
127	6246	51.2	0
127	6246	51.3	0
127	6246	51.4	0
127	6246	51.5	0
127	6246	51.6	0
127	6246	51.7	0
127	6246	51.8	0
127	6246	51.9	0
127	6246	52	0
127	6246	52.1	0
127	6246	52.2	0
127	6246	52.3	0
127	6246	52.4	0
127	6246	52.5	0
127	6246	52.6	0
127	6246	52.7	0
127	6246	52.8	0
127	6246	52.9	0
127	6246	53	0
127	6246	53.1	0
127	6246	53.2	0
127	6246	53.3	0
127	6246	53.4	0
127	6246	53.5	0
127	6246	53.6	0
127	6246	53.7	0
127	6246	53.8	0
127	6246	53.9	0
127	6246	54	0
127	6246	54.1	0
127	6246	54.2	0
127	6246	54.3	0
127	6246	54.4	0
127	6246	54.5	0
127	6246	54.6	0
127	6246	54.7	0
127	6246	54.8	0
127	6246	54.9	0
127	6246	55	0
127	6246	55.1	0
127	6246	55.2	0
127	6246	55.3	0
127	6246	55.4	0
127	6246	55.5	0
127	6246	55.6	0
127	6246	55.7	0
127	6246	55.8	0
127	6246	55.9	0
127	6246	56	0
127	6246	56.1	0
127	6246	56.2	0
127	6246	56.3	0
127	6246	56.4	0
127	6246	56.5	0
127	6246	56.6	0
127	6246	56.7	0
127	6246	56.8	0
127	6246	56.9	0
127	6246	57	0
127	6246	57.1	0
127	6246	57.2	0
127	6246	57.3	0
127	6246	57.4	0
127	6246	57.5	0
127	6246	57.6	0
127	6246	57.7	0
127	6246	57.8	0
127	6246	57.9	0
127	6246	58	0
127	6246	58.1	0
127	6246	58.2	0
127	6246	58.3	0
127	6246	58.4	0
127	6246	58.5	0
127	6246	58.6	0
127	6246	58.7	0
127	6246	58.8	0
127	6246	58.9	0
127	6246	59	0
127	6246	59.1	0
127	6246	59.2	0
127	6246	59.3	0
127	6246	59.4	0
127	6246	59.5	0
127	6246	59.6	0
127	6246	59.7	0
127	6246	59.8	0
127	6246	59.9	0
127	6246	60	0
127	6246	60.1	0
127	6246	60.2	0
127	6246	60.3	0
127	6246	60.4	0
127	6246	60.5	0

