version 2
run BHAttackScenario-0-20230515-15:37:38-2789
attr configname BHAttackScenario
attr datetime 20230515-15:37:38
attr experiment BHAttackScenario
attr inifile omnetpp.ini
attr iterationvars ""
attr iterationvarsf ""
attr measurement ""
attr network Scenario
attr processid 2789
attr repetition 0
attr replication #0
attr resultdir results
attr runnumber 0
attr seedset 0
param *.manager.launchConfig "xmldoc(\"arcavacatamap.launchd.xml\")"
param *.manager.moduleType "\"normal_car=networkprojectvanet.veins_inet.AodvCar *=networkprojectvanet.blackhole.blackhole_attack.aodv_attacker.AttackerAodvCar\""
param *.manager.moduleDisplayString "\"normal_car='i=veins/node/car;is=vs' *='i=veins/node/car,red;is=vs'\""
param *.manager.moduleName "\"normal_car=normal_car *=attacker_car\""
param *.attacker_car[*].forwarding false
param *.attacker_car[*].numApps 1
param *.attacker_car[*].app[0].typename "\"UdpSink\""
param *.attacker_car[*].app[0].localPort 5000
param *.attacker_car[*].routing.deletePeriod 5s
param *.*_car[*].ipv4.arp.typename "\"GlobalArp\""
param *.normal_car[1].numApps 1
param *.normal_car[1].app[0].typename "\"UdpBasicApp\""
param *.normal_car[1].app[0].destAddresses "\"normal_car[6]\""
param *.normal_car[1].app[0].localPort 5000
param *.normal_car[1].app[0].destPort 5000
param *.normal_car[1].app[0].messageLength 100B
param *.normal_car[1].app[0].sendInterval 1s
param *.normal_car[1].app[0].startTime 20s
param *.normal_car[1].app[0].packetName "\"UDPData\""
param *.normal_car[*].numApps 1
param *.normal_car[*].app[0].typename "\"UdpSink\""
param *.normal_car[*].app[0].localPort 5000
param *.normal_car[*].routing.deletePeriod 5s
param *.*_car[*].wlan[*].typename "\"AckingWirelessInterface\""
param *.*_car[*].wlan[*].bitrate 2Mbps
param *.*_car[*].wlan[*].mac.headerLength 23B
param *.*_car[*].wlan[*].radio.typename "\"UnitDiskRadio\""
param *.*_car[*].wlan[*].radio.transmitter.headerLength 96b
param *.*_car[*].wlan[*].radio.transmitter.communicationRange 70m
param *.*_car[*].wlan[*].radio.transmitter.interferenceRange 0m
param *.*_car[*].wlan[*].radio.transmitter.detectionRange 0m
param *.*_car[*].wlan[*].radio.receiver.ignoreInterference true
param *.*_car[*].ipv4.configurator.typename "\"HostAutoConfigurator\""
param *.*_car[*].ipv4.configurator.interfaces "\"wlan0\""
param *.*_car[*].ipv4.configurator.mcastGroups "\"224.0.0.1\""
param *.*_car[*].mobility.typename "\"VeinsInetMobility\""
param *.manager.updateInterval 0.1s
param *.manager.launchConfig "xmldoc(\"arcavacatamap.launchd.xml\")"
param *.manager.moduleType "\"normal_car=networkprojectvanet.veins_inet.AodvCar *=networkprojectvanet.veins_inet.AodvCar\""
param *.manager.moduleDisplayString "\"normal_car='i=veins/node/car;is=vs' *='i=veins/node/car;is=vs'\""
param *.manager.moduleName "\"normal_car=normal_car *=normal_car\""
param *.*_car[*].wlan[0].radio.energyConsumer.typename "\"StateBasedEpEnergyConsumer\""
param *.*_car[*].wlan[0].radio.energyConsumer.offPowerConsumption 0mW
param *.*_car[*].wlan[0].radio.energyConsumer.sleepPowerConsumption 1mW
param *.*_car[*].wlan[0].radio.energyConsumer.switchingPowerConsumption 1mW
param *.*_car[*].wlan[0].radio.energyConsumer.receiverIdlePowerConsumption 2mW
param *.*_car[*].wlan[0].radio.energyConsumer.receiverBusyPowerConsumption 5mW
param *.*_car[*].wlan[0].radio.energyConsumer.receiverReceivingPowerConsumption 10mW
param *.*_car[*].wlan[0].radio.energyConsumer.transmitterIdlePowerConsumption 2mW
param *.*_car[*].wlan[0].radio.energyConsumer.transmitterTransmittingPowerConsumption 100mW
param *.*_car[*].energyStorage.typename "\"IdealEpEnergyStorage\""
param *.*_car[*].wlan[0].radio.displayCommunicationRange true
param *.visualizer.networkRouteVisualizer.displayRoutes true

vector 0 Scenario.normal_car[0].energyStorage residualEnergyCapacity:vector ETV
attr interpolationmode linear
attr source residualEnergyCapacityChanged
attr title "Residual energy capacity, vector"
vector 1 Scenario.normal_car[0].energyStorage powerConsumption:vector ETV
attr interpolationmode sample-hold
attr source powerConsumptionChanged
attr title "Power consumption, vector"
vector 2 Scenario.normal_car[0].wlan[0].radio radioMode:vector ETV
attr interpolationmode sample-hold
attr source radioModeChanged
attr title "Radio mode, vector"
vector 3 Scenario.normal_car[0].wlan[0].radio.energyConsumer powerConsumption:vector ETV
attr interpolationmode sample-hold
attr source powerConsumptionChanged
attr title "Power consumption, vector"
vector 4 Scenario.normal_car[0].wlan[0].radio receptionState:vector ETV
attr interpolationmode sample-hold
attr source receptionStateChanged
attr title "Radio reception state, vector"
vector 5 Scenario.normal_car[0].wlan[0].radio transmissionState:vector ETV
attr interpolationmode sample-hold
attr source transmissionStateChanged
attr title "Radio transmission state, vector"
vector 6 Scenario.normal_car[1].energyStorage residualEnergyCapacity:vector ETV
attr interpolationmode linear
attr source residualEnergyCapacityChanged
attr title "Residual energy capacity, vector"
vector 7 Scenario.normal_car[1].energyStorage powerConsumption:vector ETV
attr interpolationmode sample-hold
attr source powerConsumptionChanged
attr title "Power consumption, vector"
vector 8 Scenario.normal_car[1].wlan[0].radio radioMode:vector ETV
attr interpolationmode sample-hold
attr source radioModeChanged
attr title "Radio mode, vector"
vector 9 Scenario.normal_car[1].wlan[0].radio.energyConsumer powerConsumption:vector ETV
attr interpolationmode sample-hold
attr source powerConsumptionChanged
attr title "Power consumption, vector"
vector 10 Scenario.normal_car[1].wlan[0].radio receptionState:vector ETV
attr interpolationmode sample-hold
attr source receptionStateChanged
attr title "Radio reception state, vector"
vector 11 Scenario.normal_car[1].wlan[0].radio transmissionState:vector ETV
attr interpolationmode sample-hold
attr source transmissionStateChanged
attr title "Radio transmission state, vector"
vector 12 Scenario.attacker_car[2].energyStorage residualEnergyCapacity:vector ETV
attr interpolationmode linear
attr source residualEnergyCapacityChanged
attr title "Residual energy capacity, vector"
vector 13 Scenario.attacker_car[2].energyStorage powerConsumption:vector ETV
attr interpolationmode sample-hold
attr source powerConsumptionChanged
attr title "Power consumption, vector"
vector 14 Scenario.attacker_car[2].wlan[0].radio radioMode:vector ETV
attr interpolationmode sample-hold
attr source radioModeChanged
attr title "Radio mode, vector"
vector 15 Scenario.attacker_car[2].wlan[0].radio.energyConsumer powerConsumption:vector ETV
attr interpolationmode sample-hold
attr source powerConsumptionChanged
attr title "Power consumption, vector"
vector 16 Scenario.attacker_car[2].wlan[0].radio receptionState:vector ETV
attr interpolationmode sample-hold
attr source receptionStateChanged
attr title "Radio reception state, vector"
vector 17 Scenario.attacker_car[2].wlan[0].radio transmissionState:vector ETV
attr interpolationmode sample-hold
attr source transmissionStateChanged
attr title "Radio transmission state, vector"
vector 18 Scenario.normal_car[3].energyStorage residualEnergyCapacity:vector ETV
attr interpolationmode linear
attr source residualEnergyCapacityChanged
attr title "Residual energy capacity, vector"
vector 19 Scenario.normal_car[3].energyStorage powerConsumption:vector ETV
attr interpolationmode sample-hold
attr source powerConsumptionChanged
attr title "Power consumption, vector"
vector 20 Scenario.normal_car[3].wlan[0].radio radioMode:vector ETV
attr interpolationmode sample-hold
attr source radioModeChanged
attr title "Radio mode, vector"
vector 21 Scenario.normal_car[3].wlan[0].radio.energyConsumer powerConsumption:vector ETV
attr interpolationmode sample-hold
attr source powerConsumptionChanged
attr title "Power consumption, vector"
vector 22 Scenario.normal_car[3].wlan[0].radio receptionState:vector ETV
attr interpolationmode sample-hold
attr source receptionStateChanged
attr title "Radio reception state, vector"
vector 23 Scenario.normal_car[3].wlan[0].radio transmissionState:vector ETV
attr interpolationmode sample-hold
attr source transmissionStateChanged
attr title "Radio transmission state, vector"
vector 24 Scenario.normal_car[4].energyStorage residualEnergyCapacity:vector ETV
attr interpolationmode linear
attr source residualEnergyCapacityChanged
attr title "Residual energy capacity, vector"
vector 25 Scenario.normal_car[4].energyStorage powerConsumption:vector ETV
attr interpolationmode sample-hold
attr source powerConsumptionChanged
attr title "Power consumption, vector"
vector 26 Scenario.normal_car[4].wlan[0].radio radioMode:vector ETV
attr interpolationmode sample-hold
attr source radioModeChanged
attr title "Radio mode, vector"
vector 27 Scenario.normal_car[4].wlan[0].radio.energyConsumer powerConsumption:vector ETV
attr interpolationmode sample-hold
attr source powerConsumptionChanged
attr title "Power consumption, vector"
vector 28 Scenario.normal_car[4].wlan[0].radio receptionState:vector ETV
attr interpolationmode sample-hold
attr source receptionStateChanged
attr title "Radio reception state, vector"
vector 29 Scenario.normal_car[4].wlan[0].radio transmissionState:vector ETV
attr interpolationmode sample-hold
attr source transmissionStateChanged
attr title "Radio transmission state, vector"
vector 30 Scenario.normal_car[5].energyStorage residualEnergyCapacity:vector ETV
attr interpolationmode linear
attr source residualEnergyCapacityChanged
attr title "Residual energy capacity, vector"
vector 31 Scenario.normal_car[5].energyStorage powerConsumption:vector ETV
attr interpolationmode sample-hold
attr source powerConsumptionChanged
attr title "Power consumption, vector"
vector 32 Scenario.normal_car[5].wlan[0].radio radioMode:vector ETV
attr interpolationmode sample-hold
attr source radioModeChanged
attr title "Radio mode, vector"
vector 33 Scenario.normal_car[5].wlan[0].radio.energyConsumer powerConsumption:vector ETV
attr interpolationmode sample-hold
attr source powerConsumptionChanged
attr title "Power consumption, vector"
vector 34 Scenario.normal_car[5].wlan[0].radio receptionState:vector ETV
attr interpolationmode sample-hold
attr source receptionStateChanged
attr title "Radio reception state, vector"
vector 35 Scenario.normal_car[5].wlan[0].radio transmissionState:vector ETV
attr interpolationmode sample-hold
attr source transmissionStateChanged
attr title "Radio transmission state, vector"
vector 36 Scenario.normal_car[6].energyStorage residualEnergyCapacity:vector ETV
attr interpolationmode linear
attr source residualEnergyCapacityChanged
attr title "Residual energy capacity, vector"
vector 37 Scenario.normal_car[6].energyStorage powerConsumption:vector ETV
attr interpolationmode sample-hold
attr source powerConsumptionChanged
attr title "Power consumption, vector"
vector 38 Scenario.normal_car[6].wlan[0].radio radioMode:vector ETV
attr interpolationmode sample-hold
attr source radioModeChanged
attr title "Radio mode, vector"
vector 39 Scenario.normal_car[6].wlan[0].radio.energyConsumer powerConsumption:vector ETV
attr interpolationmode sample-hold
attr source powerConsumptionChanged
attr title "Power consumption, vector"
vector 40 Scenario.normal_car[6].wlan[0].radio receptionState:vector ETV
attr interpolationmode sample-hold
attr source receptionStateChanged
attr title "Radio reception state, vector"
vector 41 Scenario.normal_car[6].wlan[0].radio transmissionState:vector ETV
attr interpolationmode sample-hold
attr source transmissionStateChanged
attr title "Radio transmission state, vector"
vector 42 Scenario.normal_car[7].energyStorage residualEnergyCapacity:vector ETV
attr interpolationmode linear
attr source residualEnergyCapacityChanged
attr title "Residual energy capacity, vector"
vector 43 Scenario.normal_car[7].energyStorage powerConsumption:vector ETV
attr interpolationmode sample-hold
attr source powerConsumptionChanged
attr title "Power consumption, vector"
vector 44 Scenario.normal_car[7].wlan[0].radio radioMode:vector ETV
attr interpolationmode sample-hold
attr source radioModeChanged
attr title "Radio mode, vector"
vector 45 Scenario.normal_car[7].wlan[0].radio.energyConsumer powerConsumption:vector ETV
attr interpolationmode sample-hold
attr source powerConsumptionChanged
attr title "Power consumption, vector"
vector 46 Scenario.normal_car[7].wlan[0].radio receptionState:vector ETV
attr interpolationmode sample-hold
attr source receptionStateChanged
attr title "Radio reception state, vector"
vector 47 Scenario.normal_car[7].wlan[0].radio transmissionState:vector ETV
attr interpolationmode sample-hold
attr source transmissionStateChanged
attr title "Radio transmission state, vector"
vector 48 Scenario.normal_car[8].energyStorage residualEnergyCapacity:vector ETV
attr interpolationmode linear
attr source residualEnergyCapacityChanged
attr title "Residual energy capacity, vector"
vector 49 Scenario.normal_car[8].energyStorage powerConsumption:vector ETV
attr interpolationmode sample-hold
attr source powerConsumptionChanged
attr title "Power consumption, vector"
vector 50 Scenario.normal_car[8].wlan[0].radio radioMode:vector ETV
attr interpolationmode sample-hold
attr source radioModeChanged
attr title "Radio mode, vector"
vector 51 Scenario.normal_car[8].wlan[0].radio.energyConsumer powerConsumption:vector ETV
attr interpolationmode sample-hold
attr source powerConsumptionChanged
attr title "Power consumption, vector"
vector 52 Scenario.normal_car[8].wlan[0].radio receptionState:vector ETV
attr interpolationmode sample-hold
attr source receptionStateChanged
attr title "Radio reception state, vector"
vector 53 Scenario.normal_car[8].wlan[0].radio transmissionState:vector ETV
attr interpolationmode sample-hold
attr source transmissionStateChanged
attr title "Radio transmission state, vector"
vector 54 Scenario.normal_car[9].energyStorage residualEnergyCapacity:vector ETV
attr interpolationmode linear
attr source residualEnergyCapacityChanged
attr title "Residual energy capacity, vector"
vector 55 Scenario.normal_car[9].energyStorage powerConsumption:vector ETV
attr interpolationmode sample-hold
attr source powerConsumptionChanged
attr title "Power consumption, vector"
vector 56 Scenario.normal_car[9].wlan[0].radio radioMode:vector ETV
attr interpolationmode sample-hold
attr source radioModeChanged
attr title "Radio mode, vector"
vector 57 Scenario.normal_car[9].wlan[0].radio.energyConsumer powerConsumption:vector ETV
attr interpolationmode sample-hold
attr source powerConsumptionChanged
attr title "Power consumption, vector"
vector 58 Scenario.normal_car[9].wlan[0].radio receptionState:vector ETV
attr interpolationmode sample-hold
attr source receptionStateChanged
attr title "Radio reception state, vector"
vector 59 Scenario.normal_car[9].wlan[0].radio transmissionState:vector ETV
attr interpolationmode sample-hold
attr source transmissionStateChanged
attr title "Radio transmission state, vector"
vector 60 Scenario.normal_car[10].energyStorage residualEnergyCapacity:vector ETV
attr interpolationmode linear
attr source residualEnergyCapacityChanged
attr title "Residual energy capacity, vector"
vector 61 Scenario.normal_car[10].energyStorage powerConsumption:vector ETV
attr interpolationmode sample-hold
attr source powerConsumptionChanged
attr title "Power consumption, vector"
vector 62 Scenario.normal_car[10].wlan[0].radio radioMode:vector ETV
attr interpolationmode sample-hold
attr source radioModeChanged
attr title "Radio mode, vector"
vector 63 Scenario.normal_car[10].wlan[0].radio.energyConsumer powerConsumption:vector ETV
attr interpolationmode sample-hold
attr source powerConsumptionChanged
attr title "Power consumption, vector"
vector 64 Scenario.normal_car[10].wlan[0].radio receptionState:vector ETV
attr interpolationmode sample-hold
attr source receptionStateChanged
attr title "Radio reception state, vector"
vector 65 Scenario.normal_car[10].wlan[0].radio transmissionState:vector ETV
attr interpolationmode sample-hold
attr source transmissionStateChanged
attr title "Radio transmission state, vector"
vector 66 Scenario.normal_car[11].energyStorage residualEnergyCapacity:vector ETV
attr interpolationmode linear
attr source residualEnergyCapacityChanged
attr title "Residual energy capacity, vector"
vector 67 Scenario.normal_car[11].energyStorage powerConsumption:vector ETV
attr interpolationmode sample-hold
attr source powerConsumptionChanged
attr title "Power consumption, vector"
vector 68 Scenario.normal_car[11].wlan[0].radio radioMode:vector ETV
attr interpolationmode sample-hold
attr source radioModeChanged
attr title "Radio mode, vector"
vector 69 Scenario.normal_car[11].wlan[0].radio.energyConsumer powerConsumption:vector ETV
attr interpolationmode sample-hold
attr source powerConsumptionChanged
attr title "Power consumption, vector"
vector 70 Scenario.normal_car[11].wlan[0].radio receptionState:vector ETV
attr interpolationmode sample-hold
attr source receptionStateChanged
attr title "Radio reception state, vector"
vector 71 Scenario.normal_car[11].wlan[0].radio transmissionState:vector ETV
attr interpolationmode sample-hold
attr source transmissionStateChanged
attr title "Radio transmission state, vector"
0	2	0.1	0
1	2	0.1	0
1	2	0.1	0
1	2	0.1	0
1	2	0.1	0
1	2	0.1	0.002
1	2	0.1	0.004
2	2	0.1	0
2	2	0.1	0
2	2	0.1	4
3	2	0.1	0
3	2	0.1	0
3	2	0.1	0
3	2	0.1	0.002
3	2	0.1	0.004
4	2	0.1	1
5	2	0.1	1
6	2	0.1	0
7	2	0.1	0
7	2	0.1	0
7	2	0.1	0
7	2	0.1	0
7	2	0.1	0.002
7	2	0.1	0.004
8	2	0.1	0
8	2	0.1	0
8	2	0.1	4
9	2	0.1	0
9	2	0.1	0
9	2	0.1	0
9	2	0.1	0.002
9	2	0.1	0.004
10	2	0.1	1
11	2	0.1	1
12	52	3.8	0
13	52	3.8	0
13	52	3.8	0
13	52	3.8	0
13	52	3.8	0
13	52	3.8	0.002
13	52	3.8	0.004
14	52	3.8	0
14	52	3.8	0
14	52	3.8	4
15	52	3.8	0
15	52	3.8	0
15	52	3.8	0
15	52	3.8	0.002
15	52	3.8	0.004
16	52	3.8	1
17	52	3.8	1
18	58	3.9	0
19	58	3.9	0
19	58	3.9	0
19	58	3.9	0
19	58	3.9	0
19	58	3.9	0.002
19	58	3.9	0.004
20	58	3.9	0
20	58	3.9	0
20	58	3.9	4
21	58	3.9	0
21	58	3.9	0
21	58	3.9	0
21	58	3.9	0.002
21	58	3.9	0.004
22	58	3.9	1
23	58	3.9	1
24	113	7.5	0
25	113	7.5	0
25	113	7.5	0
25	113	7.5	0
25	113	7.5	0
25	113	7.5	0.002
25	113	7.5	0.004
26	113	7.5	0
26	113	7.5	0
26	113	7.5	4
27	113	7.5	0
27	113	7.5	0
27	113	7.5	0
27	113	7.5	0.002
27	113	7.5	0.004
28	113	7.5	1
29	113	7.5	1
30	119	7.6	0
31	119	7.6	0
31	119	7.6	0
31	119	7.6	0
31	119	7.6	0
31	119	7.6	0.002
31	119	7.6	0.004
32	119	7.6	0
32	119	7.6	0
32	119	7.6	4
33	119	7.6	0
33	119	7.6	0
33	119	7.6	0
33	119	7.6	0.002
33	119	7.6	0.004
34	119	7.6	1
35	119	7.6	1
36	182	11.2	0
37	182	11.2	0
37	182	11.2	0
37	182	11.2	0
37	182	11.2	0
37	182	11.2	0.002
37	182	11.2	0.004
38	182	11.2	0
38	182	11.2	0
38	182	11.2	4
39	182	11.2	0
39	182	11.2	0
39	182	11.2	0
39	182	11.2	0.002
39	182	11.2	0.004
40	182	11.2	1
41	182	11.2	1
42	189	11.4	0
43	189	11.4	0
43	189	11.4	0
43	189	11.4	0
43	189	11.4	0
43	189	11.4	0.002
43	189	11.4	0.004
44	189	11.4	0
44	189	11.4	0
44	189	11.4	4
45	189	11.4	0
45	189	11.4	0
45	189	11.4	0
45	189	11.4	0.002
45	189	11.4	0.004
46	189	11.4	1
47	189	11.4	1
48	257	14.9	0
49	257	14.9	0
49	257	14.9	0
49	257	14.9	0
49	257	14.9	0
49	257	14.9	0.002
49	257	14.9	0.004
50	257	14.9	0
50	257	14.9	0
50	257	14.9	4
51	257	14.9	0
51	257	14.9	0
51	257	14.9	0
51	257	14.9	0.002
51	257	14.9	0.004
52	257	14.9	1
53	257	14.9	1
54	266	15.1	0
55	266	15.1	0
55	266	15.1	0
55	266	15.1	0
55	266	15.1	0
55	266	15.1	0.002
55	266	15.1	0.004
56	266	15.1	0
56	266	15.1	0
56	266	15.1	4
57	266	15.1	0
57	266	15.1	0
57	266	15.1	0
57	266	15.1	0.002
57	266	15.1	0.004
58	266	15.1	1
59	266	15.1	1
60	341	18.7	0
61	341	18.7	0
61	341	18.7	0
61	341	18.7	0
61	341	18.7	0
61	341	18.7	0.002
61	341	18.7	0.004
62	341	18.7	0
62	341	18.7	0
62	341	18.7	4
63	341	18.7	0
63	341	18.7	0
63	341	18.7	0
63	341	18.7	0.002
63	341	18.7	0.004
64	341	18.7	1
65	341	18.7	1
66	348	18.8	0
67	348	18.8	0
67	348	18.8	0
67	348	18.8	0
67	348	18.8	0
67	348	18.8	0.002
67	348	18.8	0.004
68	348	18.8	0
68	348	18.8	0
68	348	18.8	4
69	348	18.8	0
69	348	18.8	0
69	348	18.8	0
69	348	18.8	0.002
69	348	18.8	0.004
70	348	18.8	1
71	348	18.8	1
vector 72 Scenario.normal_car[1].app[0] packetSent:vector(packetBytes) ETV
attr interpolationmode none
attr source packetSent
attr title "packets sent, vector(packetBytes)"
vector 73 Scenario.normal_car[1].udp packetSent:vector(packetBytes) ETV
attr interpolationmode none
attr source packetSent
attr title "packets sent, vector(packetBytes)"
vector 74 Scenario.normal_car[1].wlan[0].mac rcvdPkFromHl:vector(packetBytes) ETV
attr interpolationmode none
attr source packetReceivedFromUpper
attr title "packets received from higher layer, vector(packetBytes)"
vector 75 Scenario.normal_car[1].wlan[0].mac.queue packetPushed:vector(packetBytes) ETV
attr interpolationmode none
attr title "packet pushed, vector(packetBytes)"
vector 76 Scenario.normal_car[1].wlan[0].mac.queue queueLength:vector ETV
attr interpolationmode sample-hold
attr source "count(packetPushed) - count(packetPopped) - count(packetRemoved) - count(packetDropped)"
attr title "queue length, vector"
vector 77 Scenario.normal_car[1].wlan[0].mac.queue packetPopped:vector(packetBytes) ETV
attr interpolationmode none
attr title "packet popped, vector(packetBytes)"
vector 78 Scenario.normal_car[1].wlan[0].mac.queue queueingTime:vector ETV
attr interpolationmode none
attr source queueingTime(packetPopped)
attr title "queueing times, vector"
attr unit s
vector 79 Scenario.normal_car[1].wlan[0].mac sentDownPk:vector(packetBytes) ETV
attr interpolationmode none
attr source packetSentToLower
attr title "packets sent to lower layer, vector(packetBytes)"
vector 80 Scenario.attacker_car[2].wlan[0].mac rcvdPkFromLl:vector(packetBytes) ETV
attr interpolationmode none
attr source packetReceivedFromLower
attr title "packets received from lower layer, vector(packetBytes)"
vector 81 Scenario.attacker_car[2].wlan[0].mac passedUpPk:vector(packetBytes) ETV
attr interpolationmode none
attr source packetSentToUpper
attr title "packets passed to higher layer, vector(packetBytes)"
vector 82 Scenario.attacker_car[2].udp packetReceived:vector(packetBytes) ETV
attr interpolationmode none
attr source packetReceived
attr title "packets received, vector(packetBytes)"
vector 83 Scenario.attacker_car[2].udp passedUpPk:vector(count) ETV
attr interpolationmode none
attr source packetSentToUpper
attr title "packets passed up, vector(count)"
vector 84 Scenario.attacker_car[2].udp packetSent:vector(packetBytes) ETV
attr interpolationmode none
attr source packetSent
attr title "packets sent, vector(packetBytes)"
vector 85 Scenario.attacker_car[2].wlan[0].mac rcvdPkFromHl:vector(packetBytes) ETV
attr interpolationmode none
attr source packetReceivedFromUpper
attr title "packets received from higher layer, vector(packetBytes)"
vector 86 Scenario.attacker_car[2].wlan[0].mac.queue packetPushed:vector(packetBytes) ETV
attr interpolationmode none
attr title "packet pushed, vector(packetBytes)"
vector 87 Scenario.attacker_car[2].wlan[0].mac.queue queueLength:vector ETV
attr interpolationmode sample-hold
attr source "count(packetPushed) - count(packetPopped) - count(packetRemoved) - count(packetDropped)"
attr title "queue length, vector"
vector 88 Scenario.attacker_car[2].wlan[0].mac.queue packetPopped:vector(packetBytes) ETV
attr interpolationmode none
attr title "packet popped, vector(packetBytes)"
vector 89 Scenario.attacker_car[2].wlan[0].mac.queue queueingTime:vector ETV
attr interpolationmode none
attr source queueingTime(packetPopped)
attr title "queueing times, vector"
attr unit s
vector 90 Scenario.attacker_car[2].wlan[0].mac sentDownPk:vector(packetBytes) ETV
attr interpolationmode none
attr source packetSentToLower
attr title "packets sent to lower layer, vector(packetBytes)"
vector 91 Scenario.normal_car[1].wlan[0].mac rcvdPkFromLl:vector(packetBytes) ETV
attr interpolationmode none
attr source packetReceivedFromLower
attr title "packets received from lower layer, vector(packetBytes)"
vector 92 Scenario.normal_car[1].wlan[0].mac passedUpPk:vector(packetBytes) ETV
attr interpolationmode none
attr source packetSentToUpper
attr title "packets passed to higher layer, vector(packetBytes)"
vector 93 Scenario.normal_car[1].udp packetReceived:vector(packetBytes) ETV
attr interpolationmode none
attr source packetReceived
attr title "packets received, vector(packetBytes)"
vector 94 Scenario.normal_car[1].udp passedUpPk:vector(count) ETV
attr interpolationmode none
attr source packetSentToUpper
attr title "packets passed up, vector(count)"
vector 95 Scenario.normal_car[4].wlan[0].mac rcvdPkFromLl:vector(packetBytes) ETV
attr interpolationmode none
attr source packetReceivedFromLower
attr title "packets received from lower layer, vector(packetBytes)"
vector 96 Scenario.normal_car[4].wlan[0].mac packetDropNotAddressedToUs:vector(packetBytes) ETV
attr interpolationmode none
attr source packetDropReasonIsNotAddressedToUs(packetDropped)
attr title "packet drop: not addressed to us, vector(packetBytes)"
vector 97 Scenario.normal_car[12].energyStorage residualEnergyCapacity:vector ETV
attr interpolationmode linear
attr source residualEnergyCapacityChanged
attr title "Residual energy capacity, vector"
vector 98 Scenario.normal_car[12].energyStorage powerConsumption:vector ETV
attr interpolationmode sample-hold
attr source powerConsumptionChanged
attr title "Power consumption, vector"
vector 99 Scenario.normal_car[12].wlan[0].radio radioMode:vector ETV
attr interpolationmode sample-hold
attr source radioModeChanged
attr title "Radio mode, vector"
vector 100 Scenario.normal_car[12].wlan[0].radio.energyConsumer powerConsumption:vector ETV
attr interpolationmode sample-hold
attr source powerConsumptionChanged
attr title "Power consumption, vector"
vector 101 Scenario.normal_car[12].wlan[0].radio receptionState:vector ETV
attr interpolationmode sample-hold
attr source receptionStateChanged
attr title "Radio reception state, vector"
vector 102 Scenario.normal_car[12].wlan[0].radio transmissionState:vector ETV
attr interpolationmode sample-hold
attr source transmissionStateChanged
attr title "Radio transmission state, vector"
vector 103 Scenario.normal_car[13].energyStorage residualEnergyCapacity:vector ETV
attr interpolationmode linear
attr source residualEnergyCapacityChanged
attr title "Residual energy capacity, vector"
vector 104 Scenario.normal_car[13].energyStorage powerConsumption:vector ETV
attr interpolationmode sample-hold
attr source powerConsumptionChanged
attr title "Power consumption, vector"
vector 105 Scenario.normal_car[13].wlan[0].radio radioMode:vector ETV
attr interpolationmode sample-hold
attr source radioModeChanged
attr title "Radio mode, vector"
vector 106 Scenario.normal_car[13].wlan[0].radio.energyConsumer powerConsumption:vector ETV
attr interpolationmode sample-hold
attr source powerConsumptionChanged
attr title "Power consumption, vector"
vector 107 Scenario.normal_car[13].wlan[0].radio receptionState:vector ETV
attr interpolationmode sample-hold
attr source receptionStateChanged
attr title "Radio reception state, vector"
vector 108 Scenario.normal_car[13].wlan[0].radio transmissionState:vector ETV
attr interpolationmode sample-hold
attr source transmissionStateChanged
attr title "Radio transmission state, vector"
vector 109 Scenario.normal_car[14].energyStorage residualEnergyCapacity:vector ETV
attr interpolationmode linear
attr source residualEnergyCapacityChanged
attr title "Residual energy capacity, vector"
vector 110 Scenario.normal_car[14].energyStorage powerConsumption:vector ETV
attr interpolationmode sample-hold
attr source powerConsumptionChanged
attr title "Power consumption, vector"
vector 111 Scenario.normal_car[14].wlan[0].radio radioMode:vector ETV
attr interpolationmode sample-hold
attr source radioModeChanged
attr title "Radio mode, vector"
vector 112 Scenario.normal_car[14].wlan[0].radio.energyConsumer powerConsumption:vector ETV
attr interpolationmode sample-hold
attr source powerConsumptionChanged
attr title "Power consumption, vector"
vector 113 Scenario.normal_car[14].wlan[0].radio receptionState:vector ETV
attr interpolationmode sample-hold
attr source receptionStateChanged
attr title "Radio reception state, vector"
vector 114 Scenario.normal_car[14].wlan[0].radio transmissionState:vector ETV
attr interpolationmode sample-hold
attr source transmissionStateChanged
attr title "Radio transmission state, vector"
vector 115 Scenario.normal_car[0].wlan[0].mac rcvdPkFromLl:vector(packetBytes) ETV
attr interpolationmode none
attr source packetReceivedFromLower
attr title "packets received from lower layer, vector(packetBytes)"
vector 116 Scenario.normal_car[0].wlan[0].mac packetDropNotAddressedToUs:vector(packetBytes) ETV
attr interpolationmode none
attr source packetDropReasonIsNotAddressedToUs(packetDropped)
attr title "packet drop: not addressed to us, vector(packetBytes)"
vector 117 Scenario.normal_car[3].wlan[0].mac rcvdPkFromLl:vector(packetBytes) ETV
attr interpolationmode none
attr source packetReceivedFromLower
attr title "packets received from lower layer, vector(packetBytes)"
vector 118 Scenario.normal_car[3].wlan[0].mac packetDropNotAddressedToUs:vector(packetBytes) ETV
attr interpolationmode none
attr source packetDropReasonIsNotAddressedToUs(packetDropped)
attr title "packet drop: not addressed to us, vector(packetBytes)"
vector 119 Scenario.normal_car[5].wlan[0].mac rcvdPkFromLl:vector(packetBytes) ETV
attr interpolationmode none
attr source packetReceivedFromLower
attr title "packets received from lower layer, vector(packetBytes)"
vector 120 Scenario.normal_car[5].wlan[0].mac packetDropNotAddressedToUs:vector(packetBytes) ETV
attr interpolationmode none
attr source packetDropReasonIsNotAddressedToUs(packetDropped)
attr title "packet drop: not addressed to us, vector(packetBytes)"
vector 121 Scenario.normal_car[7].wlan[0].mac rcvdPkFromLl:vector(packetBytes) ETV
attr interpolationmode none
attr source packetReceivedFromLower
attr title "packets received from lower layer, vector(packetBytes)"
vector 122 Scenario.normal_car[7].wlan[0].mac packetDropNotAddressedToUs:vector(packetBytes) ETV
attr interpolationmode none
attr source packetDropReasonIsNotAddressedToUs(packetDropped)
attr title "packet drop: not addressed to us, vector(packetBytes)"
vector 123 Scenario.normal_car[9].wlan[0].mac rcvdPkFromLl:vector(packetBytes) ETV
attr interpolationmode none
attr source packetReceivedFromLower
attr title "packets received from lower layer, vector(packetBytes)"
vector 124 Scenario.normal_car[9].wlan[0].mac packetDropNotAddressedToUs:vector(packetBytes) ETV
attr interpolationmode none
attr source packetDropReasonIsNotAddressedToUs(packetDropped)
attr title "packet drop: not addressed to us, vector(packetBytes)"
vector 125 Scenario.normal_car[11].wlan[0].mac rcvdPkFromLl:vector(packetBytes) ETV
attr interpolationmode none
attr source packetReceivedFromLower
attr title "packets received from lower layer, vector(packetBytes)"
vector 126 Scenario.normal_car[11].wlan[0].mac packetDropNotAddressedToUs:vector(packetBytes) ETV
attr interpolationmode none
attr source packetDropReasonIsNotAddressedToUs(packetDropped)
attr title "packet drop: not addressed to us, vector(packetBytes)"
vector 127 Scenario.normal_car[12].wlan[0].mac rcvdPkFromLl:vector(packetBytes) ETV
attr interpolationmode none
attr source packetReceivedFromLower
attr title "packets received from lower layer, vector(packetBytes)"
vector 128 Scenario.normal_car[12].wlan[0].mac packetDropNotAddressedToUs:vector(packetBytes) ETV
attr interpolationmode none
attr source packetDropReasonIsNotAddressedToUs(packetDropped)
attr title "packet drop: not addressed to us, vector(packetBytes)"
vector 129 Scenario.normal_car[0].app[0] throughput:vector ETV
attr source throughput(packetReceived)
attr title "throughput, vector"
attr unit bps
vector 130 Scenario.normal_car[1].app[0] throughput:vector ETV
attr source throughput(packetReceived)
attr title "throughput, vector"
attr unit bps
vector 131 Scenario.attacker_car[2].app[0] throughput:vector ETV
attr source throughput(packetReceived)
attr title "throughput, vector"
attr unit bps
vector 132 Scenario.normal_car[3].app[0] throughput:vector ETV
attr source throughput(packetReceived)
attr title "throughput, vector"
attr unit bps
vector 133 Scenario.normal_car[4].app[0] throughput:vector ETV
attr source throughput(packetReceived)
attr title "throughput, vector"
attr unit bps
vector 134 Scenario.normal_car[5].app[0] throughput:vector ETV
attr source throughput(packetReceived)
attr title "throughput, vector"
attr unit bps
vector 135 Scenario.normal_car[6].app[0] throughput:vector ETV
attr source throughput(packetReceived)
attr title "throughput, vector"
attr unit bps
vector 136 Scenario.normal_car[7].app[0] throughput:vector ETV
attr source throughput(packetReceived)
attr title "throughput, vector"
attr unit bps
vector 137 Scenario.normal_car[8].app[0] throughput:vector ETV
attr source throughput(packetReceived)
attr title "throughput, vector"
attr unit bps
vector 138 Scenario.normal_car[9].app[0] throughput:vector ETV
attr source throughput(packetReceived)
attr title "throughput, vector"
attr unit bps
vector 139 Scenario.normal_car[10].app[0] throughput:vector ETV
attr source throughput(packetReceived)
attr title "throughput, vector"
attr unit bps
vector 140 Scenario.normal_car[11].app[0] throughput:vector ETV
attr source throughput(packetReceived)
attr title "throughput, vector"
attr unit bps
vector 141 Scenario.normal_car[12].app[0] throughput:vector ETV
attr source throughput(packetReceived)
attr title "throughput, vector"
attr unit bps
vector 142 Scenario.normal_car[13].app[0] throughput:vector ETV
attr source throughput(packetReceived)
attr title "throughput, vector"
attr unit bps
vector 143 Scenario.normal_car[14].app[0] throughput:vector ETV
attr source throughput(packetReceived)
attr title "throughput, vector"
attr unit bps
0	995	29.00000015152	-0.11560000060608
0	1010	29.00065215152	-0.11560782460608
0	1059	30.00000005978	-0.11960521623912
0	1074	30.00065205978	-0.11961304023912
0	1123	31.000000035772	-0.12361043214309
0	1138	31.000652035772	-0.12361825614309
0	1189	32.000000127564	-0.12761564851026
0	1205	32.000652127564	-0.12762347251026
0	1256	33.000000218744	-0.13162086487498
0	1275	33.000652218744	-0.13162868887498
0	1323	34.000000306561	-0.13562608122624
1	995	29.00000015152	0.002
1	995	29.00000015152	0.012
1	1010	29.00065215152	0.004
1	1059	30.00000005978	0.012
1	1074	30.00065205978	0.004
1	1123	31.000000035772	0.012
1	1138	31.000652035772	0.004
1	1189	32.000000127564	0.012
1	1205	32.000652127564	0.004
1	1256	33.000000218744	0.012
1	1275	33.000652218744	0.004
1	1323	34.000000306561	0.004
3	995	29.00000015152	0.002
3	995	29.00000015152	0.012
3	1010	29.00065215152	0.004
3	1059	30.00000005978	0.012
3	1074	30.00065205978	0.004
3	1123	31.000000035772	0.012
3	1138	31.000652035772	0.004
3	1189	32.000000127564	0.012
3	1205	32.000652127564	0.004
3	1256	33.000000218744	0.012
3	1275	33.000652218744	0.004
3	1323	34.000000306561	0.004
4	995	29.00000015152	3
4	1010	29.00065215152	1
4	1059	30.00000005978	3
4	1074	30.00065205978	1
4	1123	31.000000035772	3
4	1138	31.000652035772	1
4	1189	32.000000127564	3
4	1205	32.000652127564	1
4	1256	33.000000218744	3
4	1275	33.000652218744	1
6	388	20.002964223082	-0.079611856892328
6	400	20.003312223082	-0.079647352892328
6	410	20.003312539546	-0.079647354158184
6	432	20.003644539546	-0.079651338158184
6	461	20.004296539546	-0.079717842158184
6	505	21	-0.083700656
6	517	21.000652	-0.08376716
6	558	22	-0.087764552
6	570	22.000652	-0.087831056
6	621	23	-0.091828448
6	635	23.000652	-0.091894952
6	681	24	-0.095892344
6	695	24.000652	-0.095958848
6	740	25	-0.09995624
6	754	25.000652	-0.100022744
6	803	26	-0.104020136
6	817	26.000652	-0.10408664
6	868	27	-0.108084032
6	883	27.000652	-0.108150536
6	932	28	-0.112147928
6	947	28.000652	-0.112214432
6	994	29	-0.116211824
6	1009	29.000652	-0.116278328
6	1058	30	-0.12027572
6	1073	30.000652	-0.120342224
6	1122	31	-0.124339616
6	1137	31.000652	-0.12440612
6	1187	32	-0.128403512
6	1202	32.000652	-0.128470016
6	1252	33	-0.132467408
6	1267	33.000652	-0.132533912
6	1318	34	-0.136531304
6	1333	34.000652	-0.136597808
6	1383	35	-0.1405952
6	1398	35.000652	-0.140661704
6	1449	36	-0.144659096
6	1464	36.000652	-0.1447256
6	1514	37	-0.148722992
6	1529	37.000652	-0.148789496
6	1579	38	-0.152786888
6	1594	38.000652	-0.152853392
6	1644	39	-0.156850784
6	1659	39.000652	-0.156917288
6	1709	40	-0.16091468
6	1724	40.000652	-0.160981184
6	1774	41	-0.164978576
6	1789	41.000652	-0.16504508
6	1839	42	-0.169042472
6	1854	42.000652	-0.169108976
6	1903	43	-0.173106368
6	1918	43.000652	-0.173172872
6	1967	44	-0.177170264
6	1982	44.000652	-0.177236768
6	2030	45	-0.18123416
6	2045	45.000652	-0.181300664
6	2093	46	-0.185298056
6	2108	46.000652	-0.18536456
6	2155	47	-0.189361952
6	2170	47.000652	-0.189428456
6	2218	48	-0.193425848
6	2233	48.000652	-0.193492352
6	2280	49	-0.197489744
6	2295	49.000652	-0.197556248
6	2343	50	-0.20155364
6	2358	50.000652	-0.201620144
6	2405	51	-0.205617536
6	2420	51.000652	-0.20568404
6	2468	52	-0.209681432
6	2483	52.000652	-0.209747936
6	2530	53	-0.213745328
6	2545	53.000652	-0.213811832
6	2593	54	-0.217809224
6	2608	54.000652	-0.217875728
6	2655	55	-0.22187312
6	2670	55.000652	-0.221939624
6	2718	56	-0.225937016
6	2733	56.000652	-0.22600352
6	2780	57	-0.230000912
6	2795	57.000652	-0.230067416
6	2843	58	-0.234064808
6	2858	58.000652	-0.234131312
6	2905	59	-0.238128704
6	2920	59.000652	-0.238195208
6	2968	60	-0.2421926
6	2983	60.000652	-0.242259104
7	388	20.002964223082	0.002
7	388	20.002964223082	0.102
7	400	20.003312223082	0.004
7	400	20.003312223082	0.004
7	410	20.003312539546	0.002
7	410	20.003312539546	0.012
7	432	20.003644539546	0.004
7	438	20.003644539546	0.002
7	438	20.003644539546	0.002
7	438	20.003644539546	0.102
7	461	20.004296539546	0.004
7	461	20.004296539546	0.004
7	505	21	0.002
7	505	21	0.102
7	517	21.000652	0.004
7	517	21.000652	0.004
7	558	22	0.002
7	558	22	0.102
7	570	22.000652	0.004
7	570	22.000652	0.004
7	621	23	0.002
7	621	23	0.102
7	635	23.000652	0.004
7	635	23.000652	0.004
7	681	24	0.002
7	681	24	0.102
7	695	24.000652	0.004
7	695	24.000652	0.004
7	740	25	0.002
7	740	25	0.102
7	754	25.000652	0.004
7	754	25.000652	0.004
7	803	26	0.002
7	803	26	0.102
7	817	26.000652	0.004
7	817	26.000652	0.004
7	868	27	0.002
7	868	27	0.102
7	883	27.000652	0.004
7	883	27.000652	0.004
7	932	28	0.002
7	932	28	0.102
7	947	28.000652	0.004
7	947	28.000652	0.004
7	994	29	0.002
7	994	29	0.102
7	1009	29.000652	0.004
7	1009	29.000652	0.004
7	1058	30	0.002
7	1058	30	0.102
7	1073	30.000652	0.004
7	1073	30.000652	0.004
7	1122	31	0.002
7	1122	31	0.102
7	1137	31.000652	0.004
7	1137	31.000652	0.004
7	1187	32	0.002
7	1187	32	0.102
7	1202	32.000652	0.004
7	1202	32.000652	0.004
7	1252	33	0.002
7	1252	33	0.102
7	1267	33.000652	0.004
7	1267	33.000652	0.004
7	1318	34	0.002
7	1318	34	0.102
7	1333	34.000652	0.004
7	1333	34.000652	0.004
7	1383	35	0.002
7	1383	35	0.102
7	1398	35.000652	0.004
7	1398	35.000652	0.004
7	1449	36	0.002
7	1449	36	0.102
7	1464	36.000652	0.004
7	1464	36.000652	0.004
7	1514	37	0.002
7	1514	37	0.102
7	1529	37.000652	0.004
7	1529	37.000652	0.004
7	1579	38	0.002
7	1579	38	0.102
7	1594	38.000652	0.004
7	1594	38.000652	0.004
7	1644	39	0.002
7	1644	39	0.102
7	1659	39.000652	0.004
7	1659	39.000652	0.004
7	1709	40	0.002
7	1709	40	0.102
7	1724	40.000652	0.004
7	1724	40.000652	0.004
7	1774	41	0.002
7	1774	41	0.102
7	1789	41.000652	0.004
7	1789	41.000652	0.004
7	1839	42	0.002
7	1839	42	0.102
7	1854	42.000652	0.004
7	1854	42.000652	0.004
7	1903	43	0.002
7	1903	43	0.102
7	1918	43.000652	0.004
7	1918	43.000652	0.004
7	1967	44	0.002
7	1967	44	0.102
7	1982	44.000652	0.004
7	1982	44.000652	0.004
7	2030	45	0.002
7	2030	45	0.102
7	2045	45.000652	0.004
7	2045	45.000652	0.004
7	2093	46	0.002
7	2093	46	0.102
7	2108	46.000652	0.004
7	2108	46.000652	0.004
7	2155	47	0.002
7	2155	47	0.102
7	2170	47.000652	0.004
7	2170	47.000652	0.004
7	2218	48	0.002
7	2218	48	0.102
7	2233	48.000652	0.004
7	2233	48.000652	0.004
7	2280	49	0.002
7	2280	49	0.102
7	2295	49.000652	0.004
7	2295	49.000652	0.004
7	2343	50	0.002
7	2343	50	0.102
7	2358	50.000652	0.004
7	2358	50.000652	0.004
7	2405	51	0.002
7	2405	51	0.102
7	2420	51.000652	0.004
7	2420	51.000652	0.004
7	2468	52	0.002
7	2468	52	0.102
7	2483	52.000652	0.004
7	2483	52.000652	0.004
7	2530	53	0.002
7	2530	53	0.102
7	2545	53.000652	0.004
7	2545	53.000652	0.004
7	2593	54	0.002
7	2593	54	0.102
7	2608	54.000652	0.004
7	2608	54.000652	0.004
7	2655	55	0.002
7	2655	55	0.102
7	2670	55.000652	0.004
7	2670	55.000652	0.004
7	2718	56	0.002
7	2718	56	0.102
7	2733	56.000652	0.004
7	2733	56.000652	0.004
7	2780	57	0.002
7	2780	57	0.102
7	2795	57.000652	0.004
7	2795	57.000652	0.004
7	2843	58	0.002
7	2843	58	0.102
7	2858	58.000652	0.004
7	2858	58.000652	0.004
7	2905	59	0.002
7	2905	59	0.102
7	2920	59.000652	0.004
7	2920	59.000652	0.004
7	2968	60	0.002
7	2968	60	0.102
7	2983	60.000652	0.004
7	2983	60.000652	0.004
9	388	20.002964223082	0.002
9	388	20.002964223082	0.102
9	400	20.003312223082	0.004
9	400	20.003312223082	0.004
9	410	20.003312539546	0.002
9	410	20.003312539546	0.012
9	432	20.003644539546	0.004
9	438	20.003644539546	0.002
9	438	20.003644539546	0.002
9	438	20.003644539546	0.102
9	461	20.004296539546	0.004
9	461	20.004296539546	0.004
9	505	21	0.002
9	505	21	0.102
9	517	21.000652	0.004
9	517	21.000652	0.004
9	558	22	0.002
9	558	22	0.102
9	570	22.000652	0.004
9	570	22.000652	0.004
9	621	23	0.002
9	621	23	0.102
9	635	23.000652	0.004
9	635	23.000652	0.004
9	681	24	0.002
9	681	24	0.102
9	695	24.000652	0.004
9	695	24.000652	0.004
9	740	25	0.002
9	740	25	0.102
9	754	25.000652	0.004
9	754	25.000652	0.004
9	803	26	0.002
9	803	26	0.102
9	817	26.000652	0.004
9	817	26.000652	0.004
9	868	27	0.002
9	868	27	0.102
9	883	27.000652	0.004
9	883	27.000652	0.004
9	932	28	0.002
9	932	28	0.102
9	947	28.000652	0.004
9	947	28.000652	0.004
9	994	29	0.002
9	994	29	0.102
9	1009	29.000652	0.004
9	1009	29.000652	0.004
9	1058	30	0.002
9	1058	30	0.102
9	1073	30.000652	0.004
9	1073	30.000652	0.004
9	1122	31	0.002
9	1122	31	0.102
9	1137	31.000652	0.004
9	1137	31.000652	0.004
9	1187	32	0.002
9	1187	32	0.102
9	1202	32.000652	0.004
9	1202	32.000652	0.004
9	1252	33	0.002
9	1252	33	0.102
9	1267	33.000652	0.004
9	1267	33.000652	0.004
9	1318	34	0.002
9	1318	34	0.102
9	1333	34.000652	0.004
9	1333	34.000652	0.004
9	1383	35	0.002
9	1383	35	0.102
9	1398	35.000652	0.004
9	1398	35.000652	0.004
9	1449	36	0.002
9	1449	36	0.102
9	1464	36.000652	0.004
9	1464	36.000652	0.004
9	1514	37	0.002
9	1514	37	0.102
9	1529	37.000652	0.004
9	1529	37.000652	0.004
9	1579	38	0.002
9	1579	38	0.102
9	1594	38.000652	0.004
9	1594	38.000652	0.004
9	1644	39	0.002
9	1644	39	0.102
9	1659	39.000652	0.004
9	1659	39.000652	0.004
9	1709	40	0.002
9	1709	40	0.102
9	1724	40.000652	0.004
9	1724	40.000652	0.004
9	1774	41	0.002
9	1774	41	0.102
9	1789	41.000652	0.004
9	1789	41.000652	0.004
9	1839	42	0.002
9	1839	42	0.102
9	1854	42.000652	0.004
9	1854	42.000652	0.004
9	1903	43	0.002
9	1903	43	0.102
9	1918	43.000652	0.004
9	1918	43.000652	0.004
9	1967	44	0.002
9	1967	44	0.102
9	1982	44.000652	0.004
9	1982	44.000652	0.004
9	2030	45	0.002
9	2030	45	0.102
9	2045	45.000652	0.004
9	2045	45.000652	0.004
9	2093	46	0.002
9	2093	46	0.102
9	2108	46.000652	0.004
9	2108	46.000652	0.004
9	2155	47	0.002
9	2155	47	0.102
9	2170	47.000652	0.004
9	2170	47.000652	0.004
9	2218	48	0.002
9	2218	48	0.102
9	2233	48.000652	0.004
9	2233	48.000652	0.004
9	2280	49	0.002
9	2280	49	0.102
9	2295	49.000652	0.004
9	2295	49.000652	0.004
9	2343	50	0.002
9	2343	50	0.102
9	2358	50.000652	0.004
9	2358	50.000652	0.004
9	2405	51	0.002
9	2405	51	0.102
9	2420	51.000652	0.004
9	2420	51.000652	0.004
9	2468	52	0.002
9	2468	52	0.102
9	2483	52.000652	0.004
9	2483	52.000652	0.004
9	2530	53	0.002
9	2530	53	0.102
9	2545	53.000652	0.004
9	2545	53.000652	0.004
9	2593	54	0.002
9	2593	54	0.102
9	2608	54.000652	0.004
9	2608	54.000652	0.004
9	2655	55	0.002
9	2655	55	0.102
9	2670	55.000652	0.004
9	2670	55.000652	0.004
9	2718	56	0.002
9	2718	56	0.102
9	2733	56.000652	0.004
9	2733	56.000652	0.004
9	2780	57	0.002
9	2780	57	0.102
9	2795	57.000652	0.004
9	2795	57.000652	0.004
9	2843	58	0.002
9	2843	58	0.102
9	2858	58.000652	0.004
9	2858	58.000652	0.004
9	2905	59	0.002
9	2905	59	0.102
9	2920	59.000652	0.004
9	2920	59.000652	0.004
9	2968	60	0.002
9	2968	60	0.102
9	2983	60.000652	0.004
9	2983	60.000652	0.004
10	410	20.003312539546	3
10	432	20.003644539546	1
11	388	20.002964223082	2
11	400	20.003312223082	1
11	438	20.003644539546	2
11	461	20.004296539546	1
11	505	21	2
11	517	21.000652	1
11	558	22	2
11	570	22.000652	1
11	621	23	2
11	635	23.000652	1
11	681	24	2
11	695	24.000652	1
11	740	25	2
11	754	25.000652	1
11	803	26	2
11	817	26.000652	1
11	868	27	2
11	883	27.000652	1
11	932	28	2
11	947	28.000652	1
11	994	29	2
11	1009	29.000652	1
11	1058	30	2
11	1073	30.000652	1
11	1122	31	2
11	1137	31.000652	1
11	1187	32	2
11	1202	32.000652	1
11	1252	33	2
11	1267	33.000652	1
11	1318	34	2
11	1333	34.000652	1
11	1383	35	2
11	1398	35.000652	1
11	1449	36	2
11	1464	36.000652	1
11	1514	37	2
11	1529	37.000652	1
11	1579	38	2
11	1594	38.000652	1
11	1644	39	2
11	1659	39.000652	1
11	1709	40	2
11	1724	40.000652	1
11	1774	41	2
11	1789	41.000652	1
11	1839	42	2
11	1854	42.000652	1
11	1903	43	2
11	1918	43.000652	1
11	1967	44	2
11	1982	44.000652	1
11	2030	45	2
11	2045	45.000652	1
11	2093	46	2
11	2108	46.000652	1
11	2155	47	2
11	2170	47.000652	1
11	2218	48	2
11	2233	48.000652	1
11	2280	49	2
11	2295	49.000652	1
11	2343	50	2
11	2358	50.000652	1
11	2405	51	2
11	2420	51.000652	1
11	2468	52	2
11	2483	52.000652	1
11	2530	53	2
11	2545	53.000652	1
11	2593	54	2
11	2608	54.000652	1
11	2655	55	2
11	2670	55.000652	1
11	2718	56	2
11	2733	56.000652	1
11	2780	57	2
11	2795	57.000652	1
11	2843	58	2
11	2858	58.000652	1
11	2905	59	2
11	2920	59.000652	1
11	2968	60	2
11	2983	60.000652	1
12	389	20.002964381314	-0.064811857525256
12	401	20.003312381314	-0.064816033525256
12	431	20.003644381314	-0.064849897525256
12	441	20.003644697778	-0.064849898791112
12	462	20.004296697778	-0.064857722791112
12	506	21.000000137714	-0.068840536550856
12	518	21.000652137714	-0.068848360550856
12	559	22.000000113026	-0.072845752452104
12	571	22.000652113026	-0.072853576452104
12	622	23.000000104605	-0.07685096841842
12	636	23.000652104605	-0.07685879241842
12	682	24.000000097779	-0.080856184391116
12	696	24.000652097779	-0.080864008391116
12	741	25.000000102473	-0.084861400409892
12	755	25.000652102473	-0.084869224409892
12	804	26.000000116611	-0.088866616466444
12	818	26.000652116611	-0.088874440466444
12	869	27.000000120487	-0.092871832481948
12	884	27.000652120487	-0.092879656481948
12	933	28.000000138765	-0.09687704855506
12	948	28.000652138765	-0.09688487255506
12	996	29.000000155698	-0.10088226462279
12	1012	29.000652155698	-0.10089008862279
12	1060	30.000000164776	-0.1048874806591
12	1076	30.000652164776	-0.1048953046591
12	1125	31.000000171153	-0.10889269668461
12	1142	31.000652171153	-0.10890052068461
12	1190	32.000000174888	-0.11289791269955
12	1207	32.000652174888	-0.11290573669955
12	1255	33.000000176545	-0.11690312870618
12	1272	33.000652176545	-0.11691095270618
12	1321	34.000000176558	-0.12090834470623
12	1338	34.000652176558	-0.12091616870623
12	1386	35.000000175095	-0.12491356070038
12	1403	35.000652175095	-0.12492138470038
12	1452	36.000000173029	-0.12891877669212
12	1469	36.000652173029	-0.12892660069212
12	1517	37.000000172591	-0.13292399269036
12	1534	37.000652172591	-0.13293181669036
12	1583	38.000000172901	-0.1369292086916
12	1601	38.000652172901	-0.1369370326916
12	1647	39.000000174899	-0.1409344246996
12	1664	39.000652174899	-0.1409422486996
12	1712	40.000000176563	-0.14493964070625
12	1729	40.000652176563	-0.14494746470625
12	1777	41.000000177094	-0.14894485670838
12	1794	41.000652177094	-0.14895268070838
12	1841	42.000000177126	-0.1529500727085
12	1857	42.000652177126	-0.1529578967085
12	1905	43.000000177193	-0.15695528870877
12	1921	43.000652177193	-0.15696311270877
12	1968	44.000000177166	-0.16096050470866
12	1983	44.000652177166	-0.16096832870866
12	2031	45.000000177148	-0.16496572070859
12	2046	45.000652177148	-0.16497354470859
12	2094	46.000000176927	-0.16897093670771
12	2109	46.000652176927	-0.16897876070771
12	2156	47.000000176618	-0.17297615270647
12	2171	47.000652176618	-0.17298397670647
12	2219	48.000000174047	-0.17698136869619
12	2234	48.000652174047	-0.17698919269619
12	2281	49.000000171004	-0.18098658468402
12	2296	49.000652171004	-0.18099440868402
12	2344	50.000000171021	-0.18499180068408
12	2359	50.000652171021	-0.18499962468408
12	2406	51.000000174956	-0.18899701669982
12	2421	51.000652174956	-0.18900484069982
12	2469	52.000000176934	-0.19300223270774
12	2484	52.000652176934	-0.19301005670774
12	2531	53.000000177147	-0.19700744870859
12	2546	53.000652177147	-0.19701527270859
12	2594	54.00000017714	-0.20101266470856
12	2609	54.00065217714	-0.20102048870856
12	2656	55.000000177038	-0.20501788070815
12	2671	55.000652177038	-0.20502570470815
12	2719	56.000000177002	-0.20902309670801
12	2734	56.000652177002	-0.20903092070801
12	2781	57.00000017626	-0.21302831270504
12	2796	57.00065217626	-0.21303613670504
12	2844	58.000000171973	-0.21703352868789
12	2859	58.000652171973	-0.21704135268789
12	2906	59.00000016513	-0.22103874466052
12	2921	59.00065216513	-0.22104656866052
12	2969	60.000000166295	-0.22504396066518
12	2984	60.000652166295	-0.22505178466518
13	389	20.002964381314	0.002
13	389	20.002964381314	0.012
13	401	20.003312381314	0.004
13	409	20.003312381314	0.002
13	409	20.003312381314	0.002
13	409	20.003312381314	0.102
13	431	20.003644381314	0.004
13	431	20.003644381314	0.004
13	441	20.003644697778	0.002
13	441	20.003644697778	0.012
13	462	20.004296697778	0.004
13	506	21.000000137714	0.012
13	518	21.000652137714	0.004
13	559	22.000000113026	0.012
13	571	22.000652113026	0.004
13	622	23.000000104605	0.012
13	636	23.000652104605	0.004
13	682	24.000000097779	0.012
13	696	24.000652097779	0.004
13	741	25.000000102473	0.012
13	755	25.000652102473	0.004
13	804	26.000000116611	0.012
13	818	26.000652116611	0.004
13	869	27.000000120487	0.012
13	884	27.000652120487	0.004
13	933	28.000000138765	0.012
13	948	28.000652138765	0.004
13	996	29.000000155698	0.012
13	1012	29.000652155698	0.004
13	1060	30.000000164776	0.012
13	1076	30.000652164776	0.004
13	1125	31.000000171153	0.012
13	1142	31.000652171153	0.004
13	1190	32.000000174888	0.012
13	1207	32.000652174888	0.004
13	1255	33.000000176545	0.012
13	1272	33.000652176545	0.004
13	1321	34.000000176558	0.012
13	1338	34.000652176558	0.004
13	1386	35.000000175095	0.012
13	1403	35.000652175095	0.004
13	1452	36.000000173029	0.012
13	1469	36.000652173029	0.004
13	1517	37.000000172591	0.012
13	1534	37.000652172591	0.004
13	1583	38.000000172901	0.012
13	1601	38.000652172901	0.004
13	1647	39.000000174899	0.012
13	1664	39.000652174899	0.004
13	1712	40.000000176563	0.012
13	1729	40.000652176563	0.004
13	1777	41.000000177094	0.012
13	1794	41.000652177094	0.004
13	1841	42.000000177126	0.012
13	1857	42.000652177126	0.004
13	1905	43.000000177193	0.012
13	1921	43.000652177193	0.004
13	1968	44.000000177166	0.012
13	1983	44.000652177166	0.004
13	2031	45.000000177148	0.012
13	2046	45.000652177148	0.004
13	2094	46.000000176927	0.012
13	2109	46.000652176927	0.004
13	2156	47.000000176618	0.012
13	2171	47.000652176618	0.004
13	2219	48.000000174047	0.012
13	2234	48.000652174047	0.004
13	2281	49.000000171004	0.012
13	2296	49.000652171004	0.004
13	2344	50.000000171021	0.012
13	2359	50.000652171021	0.004
13	2406	51.000000174956	0.012
13	2421	51.000652174956	0.004
13	2469	52.000000176934	0.012
13	2484	52.000652176934	0.004
13	2531	53.000000177147	0.012
13	2546	53.000652177147	0.004
13	2594	54.00000017714	0.012
13	2609	54.00065217714	0.004
13	2656	55.000000177038	0.012
13	2671	55.000652177038	0.004
13	2719	56.000000177002	0.012
13	2734	56.000652177002	0.004
13	2781	57.00000017626	0.012
13	2796	57.00065217626	0.004
13	2844	58.000000171973	0.012
13	2859	58.000652171973	0.004
13	2906	59.00000016513	0.012
13	2921	59.00065216513	0.004
13	2969	60.000000166295	0.012
13	2984	60.000652166295	0.004
15	389	20.002964381314	0.002
15	389	20.002964381314	0.012
15	401	20.003312381314	0.004
15	409	20.003312381314	0.002
15	409	20.003312381314	0.002
15	409	20.003312381314	0.102
15	431	20.003644381314	0.004
15	431	20.003644381314	0.004
15	441	20.003644697778	0.002
15	441	20.003644697778	0.012
15	462	20.004296697778	0.004
15	506	21.000000137714	0.012
15	518	21.000652137714	0.004
15	559	22.000000113026	0.012
15	571	22.000652113026	0.004
15	622	23.000000104605	0.012
15	636	23.000652104605	0.004
15	682	24.000000097779	0.012
15	696	24.000652097779	0.004
15	741	25.000000102473	0.012
15	755	25.000652102473	0.004
15	804	26.000000116611	0.012
15	818	26.000652116611	0.004
15	869	27.000000120487	0.012
15	884	27.000652120487	0.004
15	933	28.000000138765	0.012
15	948	28.000652138765	0.004
15	996	29.000000155698	0.012
15	1012	29.000652155698	0.004
15	1060	30.000000164776	0.012
15	1076	30.000652164776	0.004
15	1125	31.000000171153	0.012
15	1142	31.000652171153	0.004
15	1190	32.000000174888	0.012
15	1207	32.000652174888	0.004
15	1255	33.000000176545	0.012
15	1272	33.000652176545	0.004
15	1321	34.000000176558	0.012
15	1338	34.000652176558	0.004
15	1386	35.000000175095	0.012
15	1403	35.000652175095	0.004
15	1452	36.000000173029	0.012
15	1469	36.000652173029	0.004
15	1517	37.000000172591	0.012
15	1534	37.000652172591	0.004
15	1583	38.000000172901	0.012
15	1601	38.000652172901	0.004
15	1647	39.000000174899	0.012
15	1664	39.000652174899	0.004
15	1712	40.000000176563	0.012
15	1729	40.000652176563	0.004
15	1777	41.000000177094	0.012
15	1794	41.000652177094	0.004
15	1841	42.000000177126	0.012
15	1857	42.000652177126	0.004
15	1905	43.000000177193	0.012
15	1921	43.000652177193	0.004
15	1968	44.000000177166	0.012
15	1983	44.000652177166	0.004
15	2031	45.000000177148	0.012
15	2046	45.000652177148	0.004
15	2094	46.000000176927	0.012
15	2109	46.000652176927	0.004
15	2156	47.000000176618	0.012
15	2171	47.000652176618	0.004
15	2219	48.000000174047	0.012
15	2234	48.000652174047	0.004
15	2281	49.000000171004	0.012
15	2296	49.000652171004	0.004
15	2344	50.000000171021	0.012
15	2359	50.000652171021	0.004
15	2406	51.000000174956	0.012
15	2421	51.000652174956	0.004
15	2469	52.000000176934	0.012
15	2484	52.000652176934	0.004
15	2531	53.000000177147	0.012
15	2546	53.000652177147	0.004
15	2594	54.00000017714	0.012
15	2609	54.00065217714	0.004
15	2656	55.000000177038	0.012
15	2671	55.000652177038	0.004
15	2719	56.000000177002	0.012
15	2734	56.000652177002	0.004
15	2781	57.00000017626	0.012
15	2796	57.00065217626	0.004
15	2844	58.000000171973	0.012
15	2859	58.000652171973	0.004
15	2906	59.00000016513	0.012
15	2921	59.00065216513	0.004
15	2969	60.000000166295	0.012
15	2984	60.000652166295	0.004
16	389	20.002964381314	3
16	401	20.003312381314	1
16	441	20.003644697778	3
16	462	20.004296697778	1
16	506	21.000000137714	3
16	518	21.000652137714	1
16	559	22.000000113026	3
16	571	22.000652113026	1
16	622	23.000000104605	3
16	636	23.000652104605	1
16	682	24.000000097779	3
16	696	24.000652097779	1
16	741	25.000000102473	3
16	755	25.000652102473	1
16	804	26.000000116611	3
16	818	26.000652116611	1
16	869	27.000000120487	3
16	884	27.000652120487	1
16	933	28.000000138765	3
16	948	28.000652138765	1
16	996	29.000000155698	3
16	1012	29.000652155698	1
16	1060	30.000000164776	3
16	1076	30.000652164776	1
16	1125	31.000000171153	3
16	1142	31.000652171153	1
16	1190	32.000000174888	3
16	1207	32.000652174888	1
16	1255	33.000000176545	3
16	1272	33.000652176545	1
16	1321	34.000000176558	3
16	1338	34.000652176558	1
16	1386	35.000000175095	3
16	1403	35.000652175095	1
16	1452	36.000000173029	3
16	1469	36.000652173029	1
16	1517	37.000000172591	3
16	1534	37.000652172591	1
16	1583	38.000000172901	3
16	1601	38.000652172901	1
16	1647	39.000000174899	3
16	1664	39.000652174899	1
16	1712	40.000000176563	3
16	1729	40.000652176563	1
16	1777	41.000000177094	3
16	1794	41.000652177094	1
16	1841	42.000000177126	3
16	1857	42.000652177126	1
16	1905	43.000000177193	3
16	1921	43.000652177193	1
16	1968	44.000000177166	3
16	1983	44.000652177166	1
16	2031	45.000000177148	3
16	2046	45.000652177148	1
16	2094	46.000000176927	3
16	2109	46.000652176927	1
16	2156	47.000000176618	3
16	2171	47.000652176618	1
16	2219	48.000000174047	3
16	2234	48.000652174047	1
16	2281	49.000000171004	3
16	2296	49.000652171004	1
16	2344	50.000000171021	3
16	2359	50.000652171021	1
16	2406	51.000000174956	3
16	2421	51.000652174956	1
16	2469	52.000000176934	3
16	2484	52.000652176934	1
16	2531	53.000000177147	3
16	2546	53.000652177147	1
16	2594	54.00000017714	3
16	2609	54.00065217714	1
16	2656	55.000000177038	3
16	2671	55.000652177038	1
16	2719	56.000000177002	3
16	2734	56.000652177002	1
16	2781	57.00000017626	3
16	2796	57.00065217626	1
16	2844	58.000000171973	3
16	2859	58.000652171973	1
16	2906	59.00000016513	3
16	2921	59.00065216513	1
16	2969	60.000000166295	3
16	2984	60.000652166295	1
17	409	20.003312381314	2
17	431	20.003644381314	1
18	1124	31.000000144425	-0.1084000005777
18	1140	31.000652144425	-0.1084078245777
18	1188	32.000000053281	-0.11240521621312
18	1203	32.000652053281	-0.11241304021312
18	1253	33.000000042148	-0.11641043216859
18	1268	33.000652042148	-0.11641825616859
18	1320	34.000000134389	-0.12041564853756
18	1336	34.000652134389	-0.12042347253756
18	1387	35.000000226312	-0.12442086490525
18	1406	35.000652226312	-0.12442868890525
18	1454	36.000000316073	-0.12842608126429
19	1124	31.000000144425	0.002
19	1124	31.000000144425	0.012
19	1140	31.000652144425	0.004
19	1188	32.000000053281	0.012
19	1203	32.000652053281	0.004
19	1253	33.000000042148	0.012
19	1268	33.000652042148	0.004
19	1320	34.000000134389	0.012
19	1336	34.000652134389	0.004
19	1387	35.000000226312	0.012
19	1406	35.000652226312	0.004
19	1454	36.000000316073	0.004
21	1124	31.000000144425	0.002
21	1124	31.000000144425	0.012
21	1140	31.000652144425	0.004
21	1188	32.000000053281	0.012
21	1203	32.000652053281	0.004
21	1253	33.000000042148	0.012
21	1268	33.000652042148	0.004
21	1320	34.000000134389	0.012
21	1336	34.000652134389	0.004
21	1387	35.000000226312	0.012
21	1406	35.000652226312	0.004
21	1454	36.000000316073	0.004
22	1124	31.000000144425	3
22	1140	31.000652144425	1
22	1188	32.000000053281	3
22	1203	32.000652053281	1
22	1253	33.000000042148	3
22	1268	33.000652042148	1
22	1320	34.000000134389	3
22	1336	34.000652134389	1
22	1387	35.000000226312	3
22	1406	35.000652226312	1
24	412	20.003312553609	-0.050013250214436
24	439	20.003644553609	-0.050017234214436
24	443	20.003644870071	-0.050017235480284
24	742	25.000000229493	-0.070002656917972
24	758	25.000652229493	-0.070010480917972
24	805	26.000000219183	-0.074007872876732
24	821	26.000652219183	-0.074015696876732
24	870	27.000000218823	-0.078013088875292
24	887	27.000652218823	-0.078020912875292
24	934	28.000000234316	-0.082018304937264
25	412	20.003312553609	0.002
25	412	20.003312553609	0.012
25	439	20.003644553609	0.004
25	443	20.003644870071	0.004
25	742	25.000000229493	0.002
25	742	25.000000229493	0.012
25	758	25.000652229493	0.004
25	805	26.000000219183	0.012
25	821	26.000652219183	0.004
25	870	27.000000218823	0.012
25	887	27.000652218823	0.004
25	934	28.000000234316	0.004
27	412	20.003312553609	0.002
27	412	20.003312553609	0.012
27	439	20.003644553609	0.004
27	443	20.003644870071	0.004
27	742	25.000000229493	0.002
27	742	25.000000229493	0.012
27	758	25.000652229493	0.004
27	805	26.000000219183	0.012
27	821	26.000652219183	0.004
27	870	27.000000218823	0.012
27	887	27.000652218823	0.004
27	934	28.000000234316	0.004
28	412	20.003312553609	3
28	439	20.003644553609	1
28	742	25.000000229493	3
28	758	25.000652229493	1
28	805	26.000000219183	3
28	821	26.000652219183	1
28	870	27.000000218823	3
28	887	27.000652218823	1
30	1191	32.000000212641	-0.097600000850564
30	1210	32.000652212641	-0.097607824850564
30	1254	33.00000012552	-0.10160521650208
30	1270	33.00065212552	-0.10161304050208
30	1319	34.000000035268	-0.10561043214107
30	1334	34.000652035268	-0.10561825614107
30	1384	35.000000059886	-0.10961564823954
30	1399	35.000652059886	-0.10962347223954
30	1451	36.000000149701	-0.1136208645988
30	1467	36.000652149701	-0.1136286885988
30	1518	37.000000235926	-0.1176260809437
31	1191	32.000000212641	0.002
31	1191	32.000000212641	0.012
31	1210	32.000652212641	0.004
31	1254	33.00000012552	0.012
31	1270	33.00065212552	0.004
31	1319	34.000000035268	0.012
31	1334	34.000652035268	0.004
31	1384	35.000000059886	0.012
31	1399	35.000652059886	0.004
31	1451	36.000000149701	0.012
31	1467	36.000652149701	0.004
31	1518	37.000000235926	0.004
33	1191	32.000000212641	0.002
33	1191	32.000000212641	0.012
33	1210	32.000652212641	0.004
33	1254	33.00000012552	0.012
33	1270	33.00065212552	0.004
33	1319	34.000000035268	0.012
33	1334	34.000652035268	0.004
33	1384	35.000000059886	0.012
33	1399	35.000652059886	0.004
33	1451	36.000000149701	0.012
33	1467	36.000652149701	0.004
33	1518	37.000000235926	0.004
34	1191	32.000000212641	3
34	1210	32.000652212641	1
34	1254	33.00000012552	3
34	1270	33.00065212552	1
34	1319	34.000000035268	3
34	1334	34.000652035268	1
34	1384	35.000000059886	3
34	1399	35.000652059886	1
34	1451	36.000000149701	3
34	1467	36.000652149701	1
42	1322	34.00000020154	-0.09040000080616
42	1341	34.00065220154	-0.09040782480616
42	1385	35.000000112608	-0.094405216450432
42	1401	35.000652112608	-0.094413040450432
42	1450	36.000000022598	-0.098410432090392
42	1465	36.000652022598	-0.098418256090392
42	1515	37.000000072832	-0.10241564829133
42	1530	37.000652072832	-0.10242347229133
42	1581	38.000000162385	-0.10642086464954
42	1597	38.000652162385	-0.10642868864954
42	1648	39.000000249517	-0.11042608099807
43	1322	34.00000020154	0.002
43	1322	34.00000020154	0.012
43	1341	34.00065220154	0.004
43	1385	35.000000112608	0.012
43	1401	35.000652112608	0.004
43	1450	36.000000022598	0.012
43	1465	36.000652022598	0.004
43	1515	37.000000072832	0.012
43	1530	37.000652072832	0.004
43	1581	38.000000162385	0.012
43	1597	38.000652162385	0.004
43	1648	39.000000249517	0.004
45	1322	34.00000020154	0.002
45	1322	34.00000020154	0.012
45	1341	34.00065220154	0.004
45	1385	35.000000112608	0.012
45	1401	35.000652112608	0.004
45	1450	36.000000022598	0.012
45	1465	36.000652022598	0.004
45	1515	37.000000072832	0.012
45	1530	37.000652072832	0.004
45	1581	38.000000162385	0.012
45	1597	38.000652162385	0.004
45	1648	39.000000249517	0.004
46	1322	34.00000020154	3
46	1341	34.00065220154	1
46	1385	35.000000112608	3
46	1401	35.000652112608	1
46	1450	36.000000022598	3
46	1465	36.000652022598	1
46	1515	37.000000072832	3
46	1530	37.000652072832	1
46	1581	38.000000162385	3
46	1597	38.000652162385	1
54	1453	36.00000019062	-0.08360000076248
54	1472	36.00065219062	-0.08360782476248
54	1516	37.000000098023	-0.087605216392092
54	1532	37.000652098023	-0.087613040392092
54	1580	38.000000011608	-0.091610432046432
54	1595	38.000652011608	-0.091618256046432
54	1646	39.00000008901	-0.09561564835604
54	1662	39.00065208901	-0.09562347235604
54	1713	40.000000180734	-0.099620864722936
54	1732	40.000652180734	-0.099628688722936
54	1778	41.00000027106	-0.10362608108424
55	1453	36.00000019062	0.002
55	1453	36.00000019062	0.012
55	1472	36.00065219062	0.004
55	1516	37.000000098023	0.012
55	1532	37.000652098023	0.004
55	1580	38.000000011608	0.012
55	1595	38.000652011608	0.004
55	1646	39.00000008901	0.012
55	1662	39.00065208901	0.004
55	1713	40.000000180734	0.012
55	1732	40.000652180734	0.004
55	1778	41.00000027106	0.004
57	1453	36.00000019062	0.002
57	1453	36.00000019062	0.012
57	1472	36.00065219062	0.004
57	1516	37.000000098023	0.012
57	1532	37.000652098023	0.004
57	1580	38.000000011608	0.012
57	1595	38.000652011608	0.004
57	1646	39.00000008901	0.012
57	1662	39.00065208901	0.004
57	1713	40.000000180734	0.012
57	1732	40.000652180734	0.004
57	1778	41.00000027106	0.004
58	1453	36.00000019062	3
58	1472	36.00065219062	1
58	1516	37.000000098023	3
58	1532	37.000652098023	1
58	1580	38.000000011608	3
58	1595	38.000652011608	1
58	1646	39.00000008901	3
58	1662	39.00065208901	1
58	1713	40.000000180734	3
58	1732	40.000652180734	1
66	1582	38.000000171856	-0.076800000687424
66	1599	38.000652171856	-0.076807824687424
66	1645	39.000000079271	-0.080805216317084
66	1660	39.000652079271	-0.080813040317084
66	1710	40.000000017983	-0.084810432071932
66	1725	40.000652017983	-0.084818256071932
66	1776	41.000000108038	-0.088815648432152
66	1792	41.000652108038	-0.088823472432152
66	1842	42.000000200833	-0.092820864803332
66	1860	42.000652200833	-0.092828688803332
66	1906	43.000000293515	-0.09682608117406
67	1582	38.000000171856	0.002
67	1582	38.000000171856	0.012
67	1599	38.000652171856	0.004
67	1645	39.000000079271	0.012
67	1660	39.000652079271	0.004
67	1710	40.000000017983	0.012
67	1725	40.000652017983	0.004
67	1776	41.000000108038	0.012
67	1792	41.000652108038	0.004
67	1842	42.000000200833	0.012
67	1860	42.000652200833	0.004
67	1906	43.000000293515	0.004
69	1582	38.000000171856	0.002
69	1582	38.000000171856	0.012
69	1599	38.000652171856	0.004
69	1645	39.000000079271	0.012
69	1660	39.000652079271	0.004
69	1710	40.000000017983	0.012
69	1725	40.000652017983	0.004
69	1776	41.000000108038	0.012
69	1792	41.000652108038	0.004
69	1842	42.000000200833	0.012
69	1860	42.000652200833	0.004
69	1906	43.000000293515	0.004
70	1582	38.000000171856	3
70	1599	38.000652171856	1
70	1645	39.000000079271	3
70	1660	39.000652079271	1
70	1710	40.000000017983	3
70	1725	40.000652017983	1
70	1776	41.000000108038	3
70	1792	41.000652108038	1
70	1842	42.000000200833	3
70	1860	42.000652200833	1
72	379	20	100
72	500	21	100
72	553	22	100
72	616	23	100
72	676	24	100
72	735	25	100
72	798	26	100
72	863	27	100
72	927	28	100
72	989	29	100
72	1053	30	100
72	1117	31	100
72	1182	32	100
72	1247	33	100
72	1313	34	100
72	1378	35	100
72	1444	36	100
72	1509	37	100
72	1574	38	100
72	1639	39	100
72	1704	40	100
72	1769	41	100
72	1834	42	100
72	1898	43	100
72	1962	44	100
72	2025	45	100
72	2088	46	100
72	2150	47	100
72	2213	48	100
72	2275	49	100
72	2338	50	100
72	2400	51	100
72	2463	52	100
72	2525	53	100
72	2588	54	100
72	2650	55	100
72	2713	56	100
72	2775	57	100
72	2838	58	100
72	2900	59	100
72	2963	60	100
73	382	20	108
73	385	20.002964223082	32
73	502	21	108
73	555	22	108
73	618	23	108
73	678	24	108
73	737	25	108
73	800	26	108
73	865	27	108
73	929	28	108
73	991	29	108
73	1055	30	108
73	1119	31	108
73	1184	32	108
73	1249	33	108
73	1315	34	108
73	1380	35	108
73	1446	36	108
73	1511	37	108
73	1576	38	108
73	1641	39	108
73	1706	40	108
73	1771	41	108
73	1836	42	108
73	1900	43	108
73	1964	44	108
73	2027	45	108
73	2090	46	108
73	2152	47	108
73	2215	48	108
73	2277	49	108
73	2340	50	108
73	2402	51	108
73	2465	52	108
73	2527	53	108
73	2590	54	108
73	2652	55	108
73	2715	56	108
73	2777	57	108
73	2840	58	108
73	2902	59	108
73	2965	60	108
74	387	20.002964223082	52
74	437	20.003644539546	128
74	504	21	128
74	557	22	128
74	620	23	128
74	680	24	128
74	739	25	128
74	802	26	128
74	867	27	128
74	931	28	128
74	993	29	128
74	1057	30	128
74	1121	31	128
74	1186	32	128
74	1251	33	128
74	1317	34	128
74	1382	35	128
74	1448	36	128
74	1513	37	128
74	1578	38	128
74	1643	39	128
74	1708	40	128
74	1773	41	128
74	1838	42	128
74	1902	43	128
74	1966	44	128
74	2029	45	128
74	2092	46	128
74	2154	47	128
74	2217	48	128
74	2279	49	128
74	2342	50	128
74	2404	51	128
74	2467	52	128
74	2529	53	128
74	2592	54	128
74	2654	55	128
74	2717	56	128
74	2779	57	128
74	2842	58	128
74	2904	59	128
74	2967	60	128
75	387	20.002964223082	52
75	437	20.003644539546	128
75	504	21	128
75	557	22	128
75	620	23	128
75	680	24	128
75	739	25	128
75	802	26	128
75	867	27	128
75	931	28	128
75	993	29	128
75	1057	30	128
75	1121	31	128
75	1186	32	128
75	1251	33	128
75	1317	34	128
75	1382	35	128
75	1448	36	128
75	1513	37	128
75	1578	38	128
75	1643	39	128
75	1708	40	128
75	1773	41	128
75	1838	42	128
75	1902	43	128
75	1966	44	128
75	2029	45	128
75	2092	46	128
75	2154	47	128
75	2217	48	128
75	2279	49	128
75	2342	50	128
75	2404	51	128
75	2467	52	128
75	2529	53	128
75	2592	54	128
75	2654	55	128
75	2717	56	128
75	2779	57	128
75	2842	58	128
75	2904	59	128
75	2967	60	128
76	387	20.002964223082	1
76	387	20.002964223082	0
76	437	20.003644539546	1
76	437	20.003644539546	0
76	504	21	1
76	504	21	0
76	557	22	1
76	557	22	0
76	620	23	1
76	620	23	0
76	680	24	1
76	680	24	0
76	739	25	1
76	739	25	0
76	802	26	1
76	802	26	0
76	867	27	1
76	867	27	0
76	931	28	1
76	931	28	0
76	993	29	1
76	993	29	0
76	1057	30	1
76	1057	30	0
76	1121	31	1
76	1121	31	0
76	1186	32	1
76	1186	32	0
76	1251	33	1
76	1251	33	0
76	1317	34	1
76	1317	34	0
76	1382	35	1
76	1382	35	0
76	1448	36	1
76	1448	36	0
76	1513	37	1
76	1513	37	0
76	1578	38	1
76	1578	38	0
76	1643	39	1
76	1643	39	0
76	1708	40	1
76	1708	40	0
76	1773	41	1
76	1773	41	0
76	1838	42	1
76	1838	42	0
76	1902	43	1
76	1902	43	0
76	1966	44	1
76	1966	44	0
76	2029	45	1
76	2029	45	0
76	2092	46	1
76	2092	46	0
76	2154	47	1
76	2154	47	0
76	2217	48	1
76	2217	48	0
76	2279	49	1
76	2279	49	0
76	2342	50	1
76	2342	50	0
76	2404	51	1
76	2404	51	0
76	2467	52	1
76	2467	52	0
76	2529	53	1
76	2529	53	0
76	2592	54	1
76	2592	54	0
76	2654	55	1
76	2654	55	0
76	2717	56	1
76	2717	56	0
76	2779	57	1
76	2779	57	0
76	2842	58	1
76	2842	58	0
76	2904	59	1
76	2904	59	0
76	2967	60	1
76	2967	60	0
77	387	20.002964223082	52
77	437	20.003644539546	128
77	504	21	128
77	557	22	128
77	620	23	128
77	680	24	128
77	739	25	128
77	802	26	128
77	867	27	128
77	931	28	128
77	993	29	128
77	1057	30	128
77	1121	31	128
77	1186	32	128
77	1251	33	128
77	1317	34	128
77	1382	35	128
77	1448	36	128
77	1513	37	128
77	1578	38	128
77	1643	39	128
77	1708	40	128
77	1773	41	128
77	1838	42	128
77	1902	43	128
77	1966	44	128
77	2029	45	128
77	2092	46	128
77	2154	47	128
77	2217	48	128
77	2279	49	128
77	2342	50	128
77	2404	51	128
77	2467	52	128
77	2529	53	128
77	2592	54	128
77	2654	55	128
77	2717	56	128
77	2779	57	128
77	2842	58	128
77	2904	59	128
77	2967	60	128
78	387	20.002964223082	0
78	437	20.003644539546	0
78	504	21	0
78	557	22	0
78	620	23	0
78	680	24	0
78	739	25	0
78	802	26	0
78	867	27	0
78	931	28	0
78	993	29	0
78	1057	30	0
78	1121	31	0
78	1186	32	0
78	1251	33	0
78	1317	34	0
78	1382	35	0
78	1448	36	0
78	1513	37	0
78	1578	38	0
78	1643	39	0
78	1708	40	0
78	1773	41	0
78	1838	42	0
78	1902	43	0
78	1966	44	0
78	2029	45	0
78	2092	46	0
78	2154	47	0
78	2217	48	0
78	2279	49	0
78	2342	50	0
78	2404	51	0
78	2467	52	0
78	2529	53	0
78	2592	54	0
78	2654	55	0
78	2717	56	0
78	2779	57	0
78	2842	58	0
78	2904	59	0
78	2967	60	0
79	387	20.002964223082	75
79	437	20.003644539546	151
79	504	21	151
79	557	22	151
79	620	23	151
79	680	24	151
79	739	25	151
79	802	26	151
79	867	27	151
79	931	28	151
79	993	29	151
79	1057	30	151
79	1121	31	151
79	1186	32	151
79	1251	33	151
79	1317	34	151
79	1382	35	151
79	1448	36	151
79	1513	37	151
79	1578	38	151
79	1643	39	151
79	1708	40	151
79	1773	41	151
79	1838	42	151
79	1902	43	151
79	1966	44	151
79	2029	45	151
79	2092	46	151
79	2154	47	151
79	2217	48	151
79	2279	49	151
79	2342	50	151
79	2404	51	151
79	2467	52	151
79	2529	53	151
79	2592	54	151
79	2654	55	151
79	2717	56	151
79	2779	57	151
79	2842	58	151
79	2904	59	151
79	2967	60	151
80	402	20.003312381314	75
80	463	20.004296697778	151
80	519	21.000652137714	151
80	572	22.000652113026	151
80	637	23.000652104605	151
80	697	24.000652097779	151
80	756	25.000652102473	151
80	819	26.000652116611	151
80	885	27.000652120487	151
80	949	28.000652138765	151
80	1013	29.000652155698	151
80	1077	30.000652164776	151
80	1143	31.000652171153	151
80	1208	32.000652174888	151
80	1273	33.000652176545	151
80	1339	34.000652176558	151
80	1404	35.000652175095	151
80	1470	36.000652173029	151
80	1535	37.000652172591	151
80	1602	38.000652172901	151
80	1665	39.000652174899	151
80	1730	40.000652176563	151
80	1795	41.000652177094	151
80	1858	42.000652177126	151
80	1922	43.000652177193	151
80	1984	44.000652177166	151
80	2047	45.000652177148	151
80	2110	46.000652176927	151
80	2172	47.000652176618	151
80	2235	48.000652174047	151
80	2297	49.000652171004	151
80	2360	50.000652171021	151
80	2422	51.000652174956	151
80	2485	52.000652176934	151
80	2547	53.000652177147	151
80	2610	54.00065217714	151
80	2672	55.000652177038	151
80	2735	56.000652177002	151
80	2797	57.00065217626	151
80	2860	58.000652171973	151
80	2922	59.00065216513	151
80	2985	60.000652166295	151
81	402	20.003312381314	52
81	463	20.004296697778	128
81	519	21.000652137714	128
81	572	22.000652113026	128
81	637	23.000652104605	128
81	697	24.000652097779	128
81	756	25.000652102473	128
81	819	26.000652116611	128
81	885	27.000652120487	128
81	949	28.000652138765	128
81	1013	29.000652155698	128
81	1077	30.000652164776	128
81	1143	31.000652171153	128
81	1208	32.000652174888	128
81	1273	33.000652176545	128
81	1339	34.000652176558	128
81	1404	35.000652175095	128
81	1470	36.000652173029	128
81	1535	37.000652172591	128
81	1602	38.000652172901	128
81	1665	39.000652174899	128
81	1730	40.000652176563	128
81	1795	41.000652177094	128
81	1858	42.000652177126	128
81	1922	43.000652177193	128
81	1984	44.000652177166	128
81	2047	45.000652177148	128
81	2110	46.000652176927	128
81	2172	47.000652176618	128
81	2235	48.000652174047	128
81	2297	49.000652171004	128
81	2360	50.000652171021	128
81	2422	51.000652174956	128
81	2485	52.000652176934	128
81	2547	53.000652177147	128
81	2610	54.00065217714	128
81	2672	55.000652177038	128
81	2735	56.000652177002	128
81	2797	57.00065217626	128
81	2860	58.000652171973	128
81	2922	59.00065216513	128
81	2985	60.000652166295	128
82	404	20.003312381314	32
83	404	20.003312381314	1
84	406	20.003312381314	28
85	408	20.003312381314	48
86	408	20.003312381314	48
87	408	20.003312381314	1
87	408	20.003312381314	0
88	408	20.003312381314	48
89	408	20.003312381314	0
90	408	20.003312381314	71
91	433	20.003644539546	71
92	433	20.003644539546	48
93	435	20.003644539546	28
94	435	20.003644539546	1
95	440	20.003644553609	71
95	759	25.000652229493	151
95	822	26.000652219183	151
95	888	27.000652218823	151
96	440	20.003644553609	71
96	759	25.000652229493	151
96	822	26.000652219183	151
96	888	27.000652218823	151
97	595	22.5	0
97	1711	40.000000161055	-0.07000000064422
97	1727	40.000652161055	-0.07000782464422
97	1775	41.000000068451	-0.074005216273804
97	1790	41.000652068451	-0.074013040273804
97	1840	42.000000027498	-0.078010432109992
97	1855	42.000652027498	-0.078018256109992
97	1904	43.000000118784	-0.082015648475136
97	1919	43.000652118784	-0.082023472475136
97	1969	44.000000211487	-0.086020864845948
97	1986	44.000652211487	-0.086028688845948
97	2032	45.000000304394	-0.090026081217576
98	595	22.5	0
98	595	22.5	0
98	595	22.5	0
98	595	22.5	0
98	595	22.5	0.002
98	595	22.5	0.004
98	1711	40.000000161055	0.002
98	1711	40.000000161055	0.012
98	1727	40.000652161055	0.004
98	1775	41.000000068451	0.012
98	1790	41.000652068451	0.004
98	1840	42.000000027498	0.012
98	1855	42.000652027498	0.004
98	1904	43.000000118784	0.012
98	1919	43.000652118784	0.004
98	1969	44.000000211487	0.012
98	1986	44.000652211487	0.004
98	2032	45.000000304394	0.004
99	595	22.5	0
99	595	22.5	0
99	595	22.5	4
100	595	22.5	0
100	595	22.5	0
100	595	22.5	0
100	595	22.5	0.002
100	595	22.5	0.004
100	1711	40.000000161055	0.002
100	1711	40.000000161055	0.012
100	1727	40.000652161055	0.004
100	1775	41.000000068451	0.012
100	1790	41.000652068451	0.004
100	1840	42.000000027498	0.012
100	1855	42.000652027498	0.004
100	1904	43.000000118784	0.012
100	1919	43.000652118784	0.004
100	1969	44.000000211487	0.012
100	1986	44.000652211487	0.004
100	2032	45.000000304394	0.004
101	595	22.5	1
101	1711	40.000000161055	3
101	1727	40.000652161055	1
101	1775	41.000000068451	3
101	1790	41.000652068451	1
101	1840	42.000000027498	3
101	1855	42.000652027498	1
101	1904	43.000000118784	3
101	1919	43.000652118784	1
101	1969	44.000000211487	3
101	1986	44.000652211487	1
102	595	22.5	1
103	595	22.5	0
104	595	22.5	0
104	595	22.5	0
104	595	22.5	0
104	595	22.5	0
104	595	22.5	0.002
104	595	22.5	0.004
105	595	22.5	0
105	595	22.5	0
105	595	22.5	4
106	595	22.5	0
106	595	22.5	0
106	595	22.5	0
106	595	22.5	0.002
106	595	22.5	0.004
107	595	22.5	1
108	595	22.5	1
109	840	26.2	0
110	840	26.2	0
110	840	26.2	0
110	840	26.2	0
110	840	26.2	0
110	840	26.2	0.002
110	840	26.2	0.004
111	840	26.2	0
111	840	26.2	0
111	840	26.2	4
112	840	26.2	0
112	840	26.2	0
112	840	26.2	0
112	840	26.2	0.002
112	840	26.2	0.004
113	840	26.2	1
114	840	26.2	1
115	1011	29.00065215152	151
115	1075	30.00065205978	151
115	1139	31.000652035772	151
115	1206	32.000652127564	151
115	1276	33.000652218744	151
116	1011	29.00065215152	151
116	1075	30.00065205978	151
116	1139	31.000652035772	151
116	1206	32.000652127564	151
116	1276	33.000652218744	151
117	1141	31.000652144425	151
117	1204	32.000652053281	151
117	1269	33.000652042148	151
117	1337	34.000652134389	151
117	1407	35.000652226312	151
118	1141	31.000652144425	151
118	1204	32.000652053281	151
118	1269	33.000652042148	151
118	1337	34.000652134389	151
118	1407	35.000652226312	151
119	1211	32.000652212641	151
119	1271	33.00065212552	151
119	1335	34.000652035268	151
119	1400	35.000652059886	151
119	1468	36.000652149701	151
120	1211	32.000652212641	151
120	1271	33.00065212552	151
120	1335	34.000652035268	151
120	1400	35.000652059886	151
120	1468	36.000652149701	151
121	1342	34.00065220154	151
121	1402	35.000652112608	151
121	1466	36.000652022598	151
121	1531	37.000652072832	151
121	1598	38.000652162385	151
122	1342	34.00065220154	151
122	1402	35.000652112608	151
122	1466	36.000652022598	151
122	1531	37.000652072832	151
122	1598	38.000652162385	151
123	1473	36.00065219062	151
123	1533	37.000652098023	151
123	1596	38.000652011608	151
123	1663	39.00065208901	151
123	1733	40.000652180734	151
124	1473	36.00065219062	151
124	1533	37.000652098023	151
124	1596	38.000652011608	151
124	1663	39.00065208901	151
124	1733	40.000652180734	151
125	1600	38.000652171856	151
125	1661	39.000652079271	151
125	1726	40.000652017983	151
125	1793	41.000652108038	151
125	1861	42.000652200833	151
126	1600	38.000652171856	151
126	1661	39.000652079271	151
126	1726	40.000652017983	151
126	1793	41.000652108038	151
126	1861	42.000652200833	151
127	1728	40.000652161055	151
127	1791	41.000652068451	151
127	1856	42.000652027498	151
127	1920	43.000652118784	151
127	1987	44.000652211487	151
128	1728	40.000652161055	151
128	1791	41.000652068451	151
128	1856	42.000652027498	151
128	1920	43.000652118784	151
128	1987	44.000652211487	151
129	3015	0.1	0
129	3015	0.2	0
129	3015	0.3	0
129	3015	0.4	0
129	3015	0.5	0
129	3015	0.6	0
129	3015	0.7	0
129	3015	0.8	0
129	3015	0.9	0
129	3015	1	0
129	3015	1.1	0
129	3015	1.2	0
129	3015	1.3	0
129	3015	1.4	0
129	3015	1.5	0
129	3015	1.6	0
129	3015	1.7	0
129	3015	1.8	0
129	3015	1.9	0
129	3015	2	0
129	3015	2.1	0
129	3015	2.2	0
129	3015	2.3	0
129	3015	2.4	0
129	3015	2.5	0
129	3015	2.6	0
129	3015	2.7	0
129	3015	2.8	0
129	3015	2.9	0
129	3015	3	0
129	3015	3.1	0
129	3015	3.2	0
129	3015	3.3	0
129	3015	3.4	0
129	3015	3.5	0
129	3015	3.6	0
129	3015	3.7	0
129	3015	3.8	0
129	3015	3.9	0
129	3015	4	0
129	3015	4.1	0
129	3015	4.2	0
129	3015	4.3	0
129	3015	4.4	0
129	3015	4.5	0
129	3015	4.6	0
129	3015	4.7	0
129	3015	4.8	0
129	3015	4.9	0
129	3015	5	0
129	3015	5.1	0
129	3015	5.2	0
129	3015	5.3	0
129	3015	5.4	0
129	3015	5.5	0
129	3015	5.6	0
129	3015	5.7	0
129	3015	5.8	0
129	3015	5.9	0
129	3015	6	0
129	3015	6.1	0
129	3015	6.2	0
129	3015	6.3	0
129	3015	6.4	0
129	3015	6.5	0
129	3015	6.6	0
129	3015	6.7	0
129	3015	6.8	0
129	3015	6.9	0
129	3015	7	0
129	3015	7.1	0
129	3015	7.2	0
129	3015	7.3	0
129	3015	7.4	0
129	3015	7.5	0
129	3015	7.6	0
129	3015	7.7	0
129	3015	7.8	0
129	3015	7.9	0
129	3015	8	0
129	3015	8.1	0
129	3015	8.2	0
129	3015	8.3	0
129	3015	8.4	0
129	3015	8.5	0
129	3015	8.6	0
129	3015	8.7	0
129	3015	8.8	0
129	3015	8.9	0
129	3015	9	0
129	3015	9.1	0
129	3015	9.2	0
129	3015	9.3	0
129	3015	9.4	0
129	3015	9.5	0
129	3015	9.6	0
129	3015	9.7	0
129	3015	9.8	0
129	3015	9.9	0
129	3015	10	0
129	3015	10.1	0
129	3015	10.2	0
129	3015	10.3	0
129	3015	10.4	0
129	3015	10.5	0
129	3015	10.6	0
129	3015	10.7	0
129	3015	10.8	0
129	3015	10.9	0
129	3015	11	0
129	3015	11.1	0
129	3015	11.2	0
129	3015	11.3	0
129	3015	11.4	0
129	3015	11.5	0
129	3015	11.6	0
129	3015	11.7	0
129	3015	11.8	0
[...]
141	3015	53.8	0
141	3015	53.9	0
141	3015	54	0
141	3015	54.1	0
141	3015	54.2	0
141	3015	54.3	0
141	3015	54.4	0
141	3015	54.5	0
141	3015	54.6	0
141	3015	54.7	0
141	3015	54.8	0
141	3015	54.9	0
141	3015	55	0
141	3015	55.1	0
141	3015	55.2	0
141	3015	55.3	0
141	3015	55.4	0
141	3015	55.5	0
141	3015	55.6	0
141	3015	55.7	0
141	3015	55.8	0
141	3015	55.9	0
141	3015	56	0
141	3015	56.1	0
141	3015	56.2	0
141	3015	56.3	0
141	3015	56.4	0
141	3015	56.5	0
141	3015	56.6	0
141	3015	56.7	0
141	3015	56.8	0
141	3015	56.9	0
141	3015	57	0
141	3015	57.1	0
141	3015	57.2	0
141	3015	57.3	0
141	3015	57.4	0
141	3015	57.5	0
141	3015	57.6	0
141	3015	57.7	0
141	3015	57.8	0
141	3015	57.9	0
141	3015	58	0
141	3015	58.1	0
141	3015	58.2	0
141	3015	58.3	0
141	3015	58.4	0
141	3015	58.5	0
141	3015	58.6	0
141	3015	58.7	0
141	3015	58.8	0
141	3015	58.9	0
141	3015	59	0
141	3015	59.1	0
141	3015	59.2	0
141	3015	59.3	0
141	3015	59.4	0
141	3015	59.5	0
141	3015	59.6	0
141	3015	59.7	0
141	3015	59.8	0
141	3015	59.9	0
141	3015	60	0
141	3015	60.1	0
141	3015	60.2	0
141	3015	60.3	0
141	3015	60.4	0
141	3015	60.5	0
142	3015	0.1	0
142	3015	0.2	0
142	3015	0.3	0
142	3015	0.4	0
142	3015	0.5	0
142	3015	0.6	0
142	3015	0.7	0
142	3015	0.8	0
142	3015	0.9	0
142	3015	1	0
142	3015	1.1	0
142	3015	1.2	0
142	3015	1.3	0
142	3015	1.4	0
142	3015	1.5	0
142	3015	1.6	0
142	3015	1.7	0
142	3015	1.8	0
142	3015	1.9	0
142	3015	2	0
142	3015	2.1	0
142	3015	2.2	0
142	3015	2.3	0
142	3015	2.4	0
142	3015	2.5	0
142	3015	2.6	0
142	3015	2.7	0
142	3015	2.8	0
142	3015	2.9	0
142	3015	3	0
142	3015	3.1	0
142	3015	3.2	0
142	3015	3.3	0
142	3015	3.4	0
142	3015	3.5	0
142	3015	3.6	0
142	3015	3.7	0
142	3015	3.8	0
142	3015	3.9	0
142	3015	4	0
142	3015	4.1	0
142	3015	4.2	0
142	3015	4.3	0
142	3015	4.4	0
142	3015	4.5	0
142	3015	4.6	0
142	3015	4.7	0
142	3015	4.8	0
142	3015	4.9	0
142	3015	5	0
142	3015	5.1	0
142	3015	5.2	0
142	3015	5.3	0
142	3015	5.4	0
142	3015	5.5	0
142	3015	5.6	0
142	3015	5.7	0
142	3015	5.8	0
142	3015	5.9	0
142	3015	6	0
142	3015	6.1	0
142	3015	6.2	0
142	3015	6.3	0
142	3015	6.4	0
142	3015	6.5	0
142	3015	6.6	0
142	3015	6.7	0
142	3015	6.8	0
142	3015	6.9	0
142	3015	7	0
142	3015	7.1	0
142	3015	7.2	0
142	3015	7.3	0
142	3015	7.4	0
142	3015	7.5	0
142	3015	7.6	0
142	3015	7.7	0
142	3015	7.8	0
142	3015	7.9	0
142	3015	8	0
142	3015	8.1	0
142	3015	8.2	0
142	3015	8.3	0
142	3015	8.4	0
142	3015	8.5	0
142	3015	8.6	0
142	3015	8.7	0
142	3015	8.8	0
142	3015	8.9	0
142	3015	9	0
142	3015	9.1	0
142	3015	9.2	0
142	3015	9.3	0
142	3015	9.4	0
142	3015	9.5	0
142	3015	9.6	0
142	3015	9.7	0
142	3015	9.8	0
142	3015	9.9	0
142	3015	10	0
142	3015	10.1	0
142	3015	10.2	0
142	3015	10.3	0
142	3015	10.4	0
142	3015	10.5	0
142	3015	10.6	0
142	3015	10.7	0
142	3015	10.8	0
142	3015	10.9	0
142	3015	11	0
142	3015	11.1	0
142	3015	11.2	0
142	3015	11.3	0
142	3015	11.4	0
142	3015	11.5	0
142	3015	11.6	0
142	3015	11.7	0
142	3015	11.8	0
142	3015	11.9	0
142	3015	12	0
142	3015	12.1	0
142	3015	12.2	0
142	3015	12.3	0
142	3015	12.4	0
142	3015	12.5	0
142	3015	12.6	0
142	3015	12.7	0
142	3015	12.8	0
142	3015	12.9	0
142	3015	13	0
142	3015	13.1	0
142	3015	13.2	0
142	3015	13.3	0
142	3015	13.4	0
142	3015	13.5	0
142	3015	13.6	0
142	3015	13.7	0
142	3015	13.8	0
142	3015	13.9	0
142	3015	14	0
142	3015	14.1	0
142	3015	14.2	0
142	3015	14.3	0
142	3015	14.4	0
142	3015	14.5	0
142	3015	14.6	0
142	3015	14.7	0
142	3015	14.8	0
142	3015	14.9	0
142	3015	15	0
142	3015	15.1	0
142	3015	15.2	0
142	3015	15.3	0
142	3015	15.4	0
142	3015	15.5	0
142	3015	15.6	0
142	3015	15.7	0
142	3015	15.8	0
142	3015	15.9	0
142	3015	16	0
142	3015	16.1	0
142	3015	16.2	0
142	3015	16.3	0
142	3015	16.4	0
142	3015	16.5	0
142	3015	16.6	0
142	3015	16.7	0
142	3015	16.8	0
142	3015	16.9	0
142	3015	17	0
142	3015	17.1	0
142	3015	17.2	0
142	3015	17.3	0
142	3015	17.4	0
142	3015	17.5	0
142	3015	17.6	0
142	3015	17.7	0
142	3015	17.8	0
142	3015	17.9	0
142	3015	18	0
142	3015	18.1	0
142	3015	18.2	0
142	3015	18.3	0
142	3015	18.4	0
142	3015	18.5	0
142	3015	18.6	0
142	3015	18.7	0
142	3015	18.8	0
142	3015	18.9	0
142	3015	19	0
142	3015	19.1	0
142	3015	19.2	0
142	3015	19.3	0
142	3015	19.4	0
142	3015	19.5	0
142	3015	19.6	0
142	3015	19.7	0
142	3015	19.8	0
142	3015	19.9	0
142	3015	20	0
142	3015	20.1	0
142	3015	20.2	0
142	3015	20.3	0
142	3015	20.4	0
142	3015	20.5	0
142	3015	20.6	0
142	3015	20.7	0
142	3015	20.8	0
142	3015	20.9	0
142	3015	21	0
142	3015	21.1	0
142	3015	21.2	0
142	3015	21.3	0
142	3015	21.4	0
142	3015	21.5	0
142	3015	21.6	0
142	3015	21.7	0
142	3015	21.8	0
142	3015	21.9	0
142	3015	22	0
142	3015	22.1	0
142	3015	22.2	0
142	3015	22.3	0
142	3015	22.4	0
142	3015	22.5	0
142	3015	22.6	0
142	3015	22.7	0
142	3015	22.8	0
142	3015	22.9	0
142	3015	23	0
142	3015	23.1	0
142	3015	23.2	0
142	3015	23.3	0
142	3015	23.4	0
142	3015	23.5	0
142	3015	23.6	0
142	3015	23.7	0
142	3015	23.8	0
142	3015	23.9	0
142	3015	24	0
142	3015	24.1	0
142	3015	24.2	0
142	3015	24.3	0
142	3015	24.4	0
142	3015	24.5	0
142	3015	24.6	0
142	3015	24.7	0
142	3015	24.8	0
142	3015	24.9	0
142	3015	25	0
142	3015	25.1	0
142	3015	25.2	0
142	3015	25.3	0
142	3015	25.4	0
142	3015	25.5	0
142	3015	25.6	0
142	3015	25.7	0
142	3015	25.8	0
142	3015	25.9	0
142	3015	26	0
142	3015	26.1	0
142	3015	26.2	0
142	3015	26.3	0
142	3015	26.4	0
142	3015	26.5	0
142	3015	26.6	0
142	3015	26.7	0
142	3015	26.8	0
142	3015	26.9	0
142	3015	27	0
142	3015	27.1	0
142	3015	27.2	0
142	3015	27.3	0
142	3015	27.4	0
142	3015	27.5	0
142	3015	27.6	0
142	3015	27.7	0
142	3015	27.8	0
142	3015	27.9	0
142	3015	28	0
142	3015	28.1	0
142	3015	28.2	0
142	3015	28.3	0
142	3015	28.4	0
142	3015	28.5	0
142	3015	28.6	0
142	3015	28.7	0
142	3015	28.8	0
142	3015	28.9	0
142	3015	29	0
142	3015	29.1	0
142	3015	29.2	0
142	3015	29.3	0
142	3015	29.4	0
142	3015	29.5	0
142	3015	29.6	0
142	3015	29.7	0
142	3015	29.8	0
142	3015	29.9	0
142	3015	30	0
142	3015	30.1	0
142	3015	30.2	0
142	3015	30.3	0
142	3015	30.4	0
142	3015	30.5	0
142	3015	30.6	0
142	3015	30.7	0
142	3015	30.8	0
142	3015	30.9	0
142	3015	31	0
142	3015	31.1	0
142	3015	31.2	0
142	3015	31.3	0
142	3015	31.4	0
142	3015	31.5	0
142	3015	31.6	0
142	3015	31.7	0
142	3015	31.8	0
142	3015	31.9	0
142	3015	32	0
142	3015	32.1	0
142	3015	32.2	0
142	3015	32.3	0
142	3015	32.4	0
142	3015	32.5	0
142	3015	32.6	0
142	3015	32.7	0
142	3015	32.8	0
142	3015	32.9	0
142	3015	33	0
142	3015	33.1	0
142	3015	33.2	0
142	3015	33.3	0
142	3015	33.4	0
142	3015	33.5	0
142	3015	33.6	0
142	3015	33.7	0
142	3015	33.8	0
142	3015	33.9	0
142	3015	34	0
142	3015	34.1	0
142	3015	34.2	0
142	3015	34.3	0
142	3015	34.4	0
142	3015	34.5	0
142	3015	34.6	0
142	3015	34.7	0
142	3015	34.8	0
142	3015	34.9	0
142	3015	35	0
142	3015	35.1	0
142	3015	35.2	0
142	3015	35.3	0
142	3015	35.4	0
142	3015	35.5	0
142	3015	35.6	0
142	3015	35.7	0
142	3015	35.8	0
142	3015	35.9	0
142	3015	36	0
142	3015	36.1	0
142	3015	36.2	0
142	3015	36.3	0
142	3015	36.4	0
142	3015	36.5	0
142	3015	36.6	0
142	3015	36.7	0
142	3015	36.8	0
142	3015	36.9	0
142	3015	37	0
142	3015	37.1	0
142	3015	37.2	0
142	3015	37.3	0
142	3015	37.4	0
142	3015	37.5	0
142	3015	37.6	0
142	3015	37.7	0
142	3015	37.8	0
142	3015	37.9	0
142	3015	38	0
142	3015	38.1	0
142	3015	38.2	0
142	3015	38.3	0
142	3015	38.4	0
142	3015	38.5	0
142	3015	38.6	0
142	3015	38.7	0
142	3015	38.8	0
142	3015	38.9	0
142	3015	39	0
142	3015	39.1	0
142	3015	39.2	0
142	3015	39.3	0
142	3015	39.4	0
142	3015	39.5	0
142	3015	39.6	0
142	3015	39.7	0
142	3015	39.8	0
142	3015	39.9	0
142	3015	40	0
142	3015	40.1	0
142	3015	40.2	0
142	3015	40.3	0
142	3015	40.4	0
142	3015	40.5	0
142	3015	40.6	0
142	3015	40.7	0
142	3015	40.8	0
142	3015	40.9	0
142	3015	41	0
142	3015	41.1	0
142	3015	41.2	0
142	3015	41.3	0
142	3015	41.4	0
142	3015	41.5	0
142	3015	41.6	0
142	3015	41.7	0
142	3015	41.8	0
142	3015	41.9	0
142	3015	42	0
142	3015	42.1	0
142	3015	42.2	0
142	3015	42.3	0
142	3015	42.4	0
142	3015	42.5	0
142	3015	42.6	0
142	3015	42.7	0
142	3015	42.8	0
142	3015	42.9	0
142	3015	43	0
142	3015	43.1	0
142	3015	43.2	0
142	3015	43.3	0
142	3015	43.4	0
142	3015	43.5	0
142	3015	43.6	0
142	3015	43.7	0
142	3015	43.8	0
142	3015	43.9	0
142	3015	44	0
142	3015	44.1	0
142	3015	44.2	0
142	3015	44.3	0
142	3015	44.4	0
142	3015	44.5	0
142	3015	44.6	0
142	3015	44.7	0
142	3015	44.8	0
142	3015	44.9	0
142	3015	45	0
142	3015	45.1	0
142	3015	45.2	0
142	3015	45.3	0
142	3015	45.4	0
142	3015	45.5	0
142	3015	45.6	0
142	3015	45.7	0
142	3015	45.8	0
142	3015	45.9	0
142	3015	46	0
142	3015	46.1	0
142	3015	46.2	0
142	3015	46.3	0
142	3015	46.4	0
142	3015	46.5	0
142	3015	46.6	0
142	3015	46.7	0
142	3015	46.8	0
142	3015	46.9	0
142	3015	47	0
142	3015	47.1	0
142	3015	47.2	0
142	3015	47.3	0
142	3015	47.4	0
142	3015	47.5	0
142	3015	47.6	0
142	3015	47.7	0
142	3015	47.8	0
142	3015	47.9	0
142	3015	48	0
142	3015	48.1	0
142	3015	48.2	0
142	3015	48.3	0
142	3015	48.4	0
142	3015	48.5	0
142	3015	48.6	0
142	3015	48.7	0
142	3015	48.8	0
142	3015	48.9	0
142	3015	49	0
142	3015	49.1	0
142	3015	49.2	0
142	3015	49.3	0
142	3015	49.4	0
142	3015	49.5	0
142	3015	49.6	0
142	3015	49.7	0
142	3015	49.8	0
142	3015	49.9	0
142	3015	50	0
142	3015	50.1	0
142	3015	50.2	0
142	3015	50.3	0
142	3015	50.4	0
142	3015	50.5	0
142	3015	50.6	0
142	3015	50.7	0
142	3015	50.8	0
142	3015	50.9	0
142	3015	51	0
142	3015	51.1	0
142	3015	51.2	0
142	3015	51.3	0
142	3015	51.4	0
142	3015	51.5	0
142	3015	51.6	0
142	3015	51.7	0
142	3015	51.8	0
142	3015	51.9	0
142	3015	52	0
142	3015	52.1	0
142	3015	52.2	0
142	3015	52.3	0
142	3015	52.4	0
142	3015	52.5	0
142	3015	52.6	0
142	3015	52.7	0
142	3015	52.8	0
142	3015	52.9	0
142	3015	53	0
142	3015	53.1	0
142	3015	53.2	0
142	3015	53.3	0
142	3015	53.4	0
142	3015	53.5	0
142	3015	53.6	0
142	3015	53.7	0
142	3015	53.8	0
142	3015	53.9	0
142	3015	54	0
142	3015	54.1	0
142	3015	54.2	0
142	3015	54.3	0
142	3015	54.4	0
142	3015	54.5	0
142	3015	54.6	0
142	3015	54.7	0
142	3015	54.8	0
142	3015	54.9	0
142	3015	55	0
142	3015	55.1	0
142	3015	55.2	0
142	3015	55.3	0
142	3015	55.4	0
142	3015	55.5	0
142	3015	55.6	0
142	3015	55.7	0
142	3015	55.8	0
142	3015	55.9	0
142	3015	56	0
142	3015	56.1	0
142	3015	56.2	0
142	3015	56.3	0
142	3015	56.4	0
142	3015	56.5	0
142	3015	56.6	0
142	3015	56.7	0
142	3015	56.8	0
142	3015	56.9	0
142	3015	57	0
142	3015	57.1	0
142	3015	57.2	0
142	3015	57.3	0
142	3015	57.4	0
142	3015	57.5	0
142	3015	57.6	0
142	3015	57.7	0
142	3015	57.8	0
142	3015	57.9	0
142	3015	58	0
142	3015	58.1	0
142	3015	58.2	0
142	3015	58.3	0
142	3015	58.4	0
142	3015	58.5	0
142	3015	58.6	0
142	3015	58.7	0
142	3015	58.8	0
142	3015	58.9	0
142	3015	59	0
142	3015	59.1	0
142	3015	59.2	0
142	3015	59.3	0
142	3015	59.4	0
142	3015	59.5	0
142	3015	59.6	0
142	3015	59.7	0
142	3015	59.8	0
142	3015	59.9	0
142	3015	60	0
142	3015	60.1	0
142	3015	60.2	0
142	3015	60.3	0
142	3015	60.4	0
142	3015	60.5	0
143	3015	0.1	0
143	3015	0.2	0
143	3015	0.3	0
143	3015	0.4	0
143	3015	0.5	0
143	3015	0.6	0
143	3015	0.7	0
143	3015	0.8	0
143	3015	0.9	0
143	3015	1	0
143	3015	1.1	0
143	3015	1.2	0
143	3015	1.3	0
143	3015	1.4	0
143	3015	1.5	0
143	3015	1.6	0
143	3015	1.7	0
143	3015	1.8	0
143	3015	1.9	0
143	3015	2	0
143	3015	2.1	0
143	3015	2.2	0
143	3015	2.3	0
143	3015	2.4	0
143	3015	2.5	0
143	3015	2.6	0
143	3015	2.7	0
143	3015	2.8	0
143	3015	2.9	0
143	3015	3	0
143	3015	3.1	0
143	3015	3.2	0
143	3015	3.3	0
143	3015	3.4	0
143	3015	3.5	0
143	3015	3.6	0
143	3015	3.7	0
143	3015	3.8	0
143	3015	3.9	0
143	3015	4	0
143	3015	4.1	0
143	3015	4.2	0
143	3015	4.3	0
143	3015	4.4	0
143	3015	4.5	0
143	3015	4.6	0
143	3015	4.7	0
143	3015	4.8	0
143	3015	4.9	0
143	3015	5	0
143	3015	5.1	0
143	3015	5.2	0
143	3015	5.3	0
143	3015	5.4	0
143	3015	5.5	0
143	3015	5.6	0
143	3015	5.7	0
143	3015	5.8	0
143	3015	5.9	0
143	3015	6	0
143	3015	6.1	0
143	3015	6.2	0
143	3015	6.3	0
143	3015	6.4	0
143	3015	6.5	0
143	3015	6.6	0
143	3015	6.7	0
143	3015	6.8	0
143	3015	6.9	0
143	3015	7	0
143	3015	7.1	0
143	3015	7.2	0
143	3015	7.3	0
143	3015	7.4	0
143	3015	7.5	0
143	3015	7.6	0
143	3015	7.7	0
143	3015	7.8	0
143	3015	7.9	0
143	3015	8	0
143	3015	8.1	0
143	3015	8.2	0
143	3015	8.3	0
143	3015	8.4	0
143	3015	8.5	0
143	3015	8.6	0
143	3015	8.7	0
143	3015	8.8	0
143	3015	8.9	0
143	3015	9	0
143	3015	9.1	0
143	3015	9.2	0
143	3015	9.3	0
143	3015	9.4	0
143	3015	9.5	0
143	3015	9.6	0
143	3015	9.7	0
143	3015	9.8	0
143	3015	9.9	0
143	3015	10	0
143	3015	10.1	0
143	3015	10.2	0
143	3015	10.3	0
143	3015	10.4	0
143	3015	10.5	0
143	3015	10.6	0
143	3015	10.7	0
143	3015	10.8	0
143	3015	10.9	0
143	3015	11	0
143	3015	11.1	0
143	3015	11.2	0
143	3015	11.3	0
143	3015	11.4	0
143	3015	11.5	0
143	3015	11.6	0
143	3015	11.7	0
143	3015	11.8	0
143	3015	11.9	0
143	3015	12	0
143	3015	12.1	0
143	3015	12.2	0
143	3015	12.3	0
143	3015	12.4	0
143	3015	12.5	0
143	3015	12.6	0
143	3015	12.7	0
143	3015	12.8	0
143	3015	12.9	0
143	3015	13	0
143	3015	13.1	0
143	3015	13.2	0
143	3015	13.3	0
143	3015	13.4	0
143	3015	13.5	0
143	3015	13.6	0
143	3015	13.7	0
143	3015	13.8	0
143	3015	13.9	0
143	3015	14	0
143	3015	14.1	0
143	3015	14.2	0
143	3015	14.3	0
143	3015	14.4	0
143	3015	14.5	0
143	3015	14.6	0
143	3015	14.7	0
143	3015	14.8	0
143	3015	14.9	0
143	3015	15	0
143	3015	15.1	0
143	3015	15.2	0
143	3015	15.3	0
143	3015	15.4	0
143	3015	15.5	0
143	3015	15.6	0
143	3015	15.7	0
143	3015	15.8	0
143	3015	15.9	0
143	3015	16	0
143	3015	16.1	0
143	3015	16.2	0
143	3015	16.3	0
143	3015	16.4	0
143	3015	16.5	0
143	3015	16.6	0
143	3015	16.7	0
143	3015	16.8	0
143	3015	16.9	0
143	3015	17	0
143	3015	17.1	0
143	3015	17.2	0
143	3015	17.3	0
143	3015	17.4	0
143	3015	17.5	0
143	3015	17.6	0
143	3015	17.7	0
143	3015	17.8	0
143	3015	17.9	0
143	3015	18	0
143	3015	18.1	0
143	3015	18.2	0
143	3015	18.3	0
143	3015	18.4	0
143	3015	18.5	0
143	3015	18.6	0
143	3015	18.7	0
143	3015	18.8	0
143	3015	18.9	0
143	3015	19	0
143	3015	19.1	0
143	3015	19.2	0
143	3015	19.3	0
143	3015	19.4	0
143	3015	19.5	0
143	3015	19.6	0
143	3015	19.7	0
143	3015	19.8	0
143	3015	19.9	0
143	3015	20	0
143	3015	20.1	0
143	3015	20.2	0
143	3015	20.3	0
143	3015	20.4	0
143	3015	20.5	0
143	3015	20.6	0
143	3015	20.7	0
143	3015	20.8	0
143	3015	20.9	0
143	3015	21	0
143	3015	21.1	0
143	3015	21.2	0
143	3015	21.3	0
143	3015	21.4	0
143	3015	21.5	0
143	3015	21.6	0
143	3015	21.7	0
143	3015	21.8	0
143	3015	21.9	0
143	3015	22	0
143	3015	22.1	0
143	3015	22.2	0
143	3015	22.3	0
143	3015	22.4	0
143	3015	22.5	0
143	3015	22.6	0
143	3015	22.7	0
143	3015	22.8	0
143	3015	22.9	0
143	3015	23	0
143	3015	23.1	0
143	3015	23.2	0
143	3015	23.3	0
143	3015	23.4	0
143	3015	23.5	0
143	3015	23.6	0
143	3015	23.7	0
143	3015	23.8	0
143	3015	23.9	0
143	3015	24	0
143	3015	24.1	0
143	3015	24.2	0
143	3015	24.3	0
143	3015	24.4	0
143	3015	24.5	0
143	3015	24.6	0
143	3015	24.7	0
143	3015	24.8	0
143	3015	24.9	0
143	3015	25	0
143	3015	25.1	0
143	3015	25.2	0
143	3015	25.3	0
143	3015	25.4	0
143	3015	25.5	0
143	3015	25.6	0
143	3015	25.7	0
143	3015	25.8	0
143	3015	25.9	0
143	3015	26	0
143	3015	26.1	0
143	3015	26.2	0
143	3015	26.3	0
143	3015	26.4	0
143	3015	26.5	0
143	3015	26.6	0
143	3015	26.7	0
143	3015	26.8	0
143	3015	26.9	0
143	3015	27	0
143	3015	27.1	0
143	3015	27.2	0
143	3015	27.3	0
143	3015	27.4	0
143	3015	27.5	0
143	3015	27.6	0
143	3015	27.7	0
143	3015	27.8	0
143	3015	27.9	0
143	3015	28	0
143	3015	28.1	0
143	3015	28.2	0
143	3015	28.3	0
143	3015	28.4	0
143	3015	28.5	0
143	3015	28.6	0
143	3015	28.7	0
143	3015	28.8	0
143	3015	28.9	0
143	3015	29	0
143	3015	29.1	0
143	3015	29.2	0
143	3015	29.3	0
143	3015	29.4	0
143	3015	29.5	0
143	3015	29.6	0
143	3015	29.7	0
143	3015	29.8	0
143	3015	29.9	0
143	3015	30	0
143	3015	30.1	0
143	3015	30.2	0
143	3015	30.3	0
143	3015	30.4	0
143	3015	30.5	0
143	3015	30.6	0
143	3015	30.7	0
143	3015	30.8	0
143	3015	30.9	0
143	3015	31	0
143	3015	31.1	0
143	3015	31.2	0
143	3015	31.3	0
143	3015	31.4	0
143	3015	31.5	0
143	3015	31.6	0
143	3015	31.7	0
143	3015	31.8	0
143	3015	31.9	0
143	3015	32	0
143	3015	32.1	0
143	3015	32.2	0
143	3015	32.3	0
143	3015	32.4	0
143	3015	32.5	0
143	3015	32.6	0
143	3015	32.7	0
143	3015	32.8	0
143	3015	32.9	0
143	3015	33	0
143	3015	33.1	0
143	3015	33.2	0
143	3015	33.3	0
143	3015	33.4	0
143	3015	33.5	0
143	3015	33.6	0
143	3015	33.7	0
143	3015	33.8	0
143	3015	33.9	0
143	3015	34	0
143	3015	34.1	0
143	3015	34.2	0
143	3015	34.3	0
143	3015	34.4	0
143	3015	34.5	0
143	3015	34.6	0
143	3015	34.7	0
143	3015	34.8	0
143	3015	34.9	0
143	3015	35	0
143	3015	35.1	0
143	3015	35.2	0
143	3015	35.3	0
143	3015	35.4	0
143	3015	35.5	0
143	3015	35.6	0
143	3015	35.7	0
143	3015	35.8	0
143	3015	35.9	0
143	3015	36	0
143	3015	36.1	0
143	3015	36.2	0
143	3015	36.3	0
143	3015	36.4	0
143	3015	36.5	0
143	3015	36.6	0
143	3015	36.7	0
143	3015	36.8	0
143	3015	36.9	0
143	3015	37	0
143	3015	37.1	0
143	3015	37.2	0
143	3015	37.3	0
143	3015	37.4	0
143	3015	37.5	0
143	3015	37.6	0
143	3015	37.7	0
143	3015	37.8	0
143	3015	37.9	0
143	3015	38	0
143	3015	38.1	0
143	3015	38.2	0
143	3015	38.3	0
143	3015	38.4	0
143	3015	38.5	0
143	3015	38.6	0
143	3015	38.7	0
143	3015	38.8	0
143	3015	38.9	0
143	3015	39	0
143	3015	39.1	0
143	3015	39.2	0
143	3015	39.3	0
143	3015	39.4	0
143	3015	39.5	0
143	3015	39.6	0
143	3015	39.7	0
143	3015	39.8	0
143	3015	39.9	0
143	3015	40	0
143	3015	40.1	0
143	3015	40.2	0
143	3015	40.3	0
143	3015	40.4	0
143	3015	40.5	0
143	3015	40.6	0
143	3015	40.7	0
143	3015	40.8	0
143	3015	40.9	0
143	3015	41	0
143	3015	41.1	0
143	3015	41.2	0
143	3015	41.3	0
143	3015	41.4	0
143	3015	41.5	0
143	3015	41.6	0
143	3015	41.7	0
143	3015	41.8	0
143	3015	41.9	0
143	3015	42	0
143	3015	42.1	0
143	3015	42.2	0
143	3015	42.3	0
143	3015	42.4	0
143	3015	42.5	0
143	3015	42.6	0
143	3015	42.7	0
143	3015	42.8	0
143	3015	42.9	0
143	3015	43	0
143	3015	43.1	0
143	3015	43.2	0
143	3015	43.3	0
143	3015	43.4	0
143	3015	43.5	0
143	3015	43.6	0
143	3015	43.7	0
143	3015	43.8	0
143	3015	43.9	0
143	3015	44	0
143	3015	44.1	0
143	3015	44.2	0
143	3015	44.3	0
143	3015	44.4	0
143	3015	44.5	0
143	3015	44.6	0
143	3015	44.7	0
143	3015	44.8	0
143	3015	44.9	0
143	3015	45	0
143	3015	45.1	0
143	3015	45.2	0
143	3015	45.3	0
143	3015	45.4	0
143	3015	45.5	0
143	3015	45.6	0
143	3015	45.7	0
143	3015	45.8	0
143	3015	45.9	0
143	3015	46	0
143	3015	46.1	0
143	3015	46.2	0
143	3015	46.3	0
143	3015	46.4	0
143	3015	46.5	0
143	3015	46.6	0
143	3015	46.7	0
143	3015	46.8	0
143	3015	46.9	0
143	3015	47	0
143	3015	47.1	0
143	3015	47.2	0
143	3015	47.3	0
143	3015	47.4	0
143	3015	47.5	0
143	3015	47.6	0
143	3015	47.7	0
143	3015	47.8	0
143	3015	47.9	0
143	3015	48	0
143	3015	48.1	0
143	3015	48.2	0
143	3015	48.3	0
143	3015	48.4	0
143	3015	48.5	0
143	3015	48.6	0
143	3015	48.7	0
143	3015	48.8	0
143	3015	48.9	0
143	3015	49	0
143	3015	49.1	0
143	3015	49.2	0
143	3015	49.3	0
143	3015	49.4	0
143	3015	49.5	0
143	3015	49.6	0
143	3015	49.7	0
143	3015	49.8	0
143	3015	49.9	0
143	3015	50	0
143	3015	50.1	0
143	3015	50.2	0
143	3015	50.3	0
143	3015	50.4	0
143	3015	50.5	0
143	3015	50.6	0
143	3015	50.7	0
143	3015	50.8	0
143	3015	50.9	0
143	3015	51	0
143	3015	51.1	0
143	3015	51.2	0
143	3015	51.3	0
143	3015	51.4	0
143	3015	51.5	0
143	3015	51.6	0
143	3015	51.7	0
143	3015	51.8	0
143	3015	51.9	0
143	3015	52	0
143	3015	52.1	0
143	3015	52.2	0
143	3015	52.3	0
143	3015	52.4	0
143	3015	52.5	0
143	3015	52.6	0
143	3015	52.7	0
143	3015	52.8	0
143	3015	52.9	0
143	3015	53	0
143	3015	53.1	0
143	3015	53.2	0
143	3015	53.3	0
143	3015	53.4	0
143	3015	53.5	0
143	3015	53.6	0
143	3015	53.7	0
143	3015	53.8	0
143	3015	53.9	0
143	3015	54	0
143	3015	54.1	0
143	3015	54.2	0
143	3015	54.3	0
143	3015	54.4	0
143	3015	54.5	0
143	3015	54.6	0
143	3015	54.7	0
143	3015	54.8	0
143	3015	54.9	0
143	3015	55	0
143	3015	55.1	0
143	3015	55.2	0
143	3015	55.3	0
143	3015	55.4	0
143	3015	55.5	0
143	3015	55.6	0
143	3015	55.7	0
143	3015	55.8	0
143	3015	55.9	0
143	3015	56	0
143	3015	56.1	0
143	3015	56.2	0
143	3015	56.3	0
143	3015	56.4	0
143	3015	56.5	0
143	3015	56.6	0
143	3015	56.7	0
143	3015	56.8	0
143	3015	56.9	0
143	3015	57	0
143	3015	57.1	0
143	3015	57.2	0
143	3015	57.3	0
143	3015	57.4	0
143	3015	57.5	0
143	3015	57.6	0
143	3015	57.7	0
143	3015	57.8	0
143	3015	57.9	0
143	3015	58	0
143	3015	58.1	0
143	3015	58.2	0
143	3015	58.3	0
143	3015	58.4	0
143	3015	58.5	0
143	3015	58.6	0
143	3015	58.7	0
143	3015	58.8	0
143	3015	58.9	0
143	3015	59	0
143	3015	59.1	0
143	3015	59.2	0
143	3015	59.3	0
143	3015	59.4	0
143	3015	59.5	0
143	3015	59.6	0
143	3015	59.7	0
143	3015	59.8	0
143	3015	59.9	0
143	3015	60	0
143	3015	60.1	0
143	3015	60.2	0
143	3015	60.3	0
143	3015	60.4	0
143	3015	60.5	0

