version 2
run BHMitigationScenario-0-20230518-16:20:32-7555
attr configname BHMitigationScenario
attr datetime 20230518-16:20:32
attr experiment BHMitigationScenario
attr inifile omnetpp.ini
attr iterationvars ""
attr iterationvarsf ""
attr measurement ""
attr network Scenario
attr processid 7555
attr repetition 0
attr replication #0
attr resultdir results
attr runnumber 0
attr seedset 0
param *.normalCarType "\"SecureAodvCar\""
param *.attackerCarType "\"SecureAodvAttackerCar\""
param *.manager.moduleType "\"normal_car=networkprojectvanet.blackhole.blackhole_mitigation.secure_aodv_car.SecureAodvCar *=networkprojectvanet.blackhole.blackhole_mitigation.secure_aodv_attacker.SecureAodvAttackerCar\""
param *.manager.moduleDisplayString "\"normal_car='i=veins/node/car,green;is=vs' *='i=veins/node/car,red;is=vs'\""
param *.manager.launchConfig "xmldoc(\"arcavacatamap.launchd.xml\")"
param *.manager.moduleType "\"normal_car=networkprojectvanet.veins_inet.AodvCar *=networkprojectvanet.blackhole.blackhole_attack.aodv_attacker.AttackerAodvCar\""
param *.manager.moduleDisplayString "\"normal_car='i=veins/node/car;is=vs' *='i=veins/node/car,red;is=vs'\""
param *.manager.moduleName "\"normal_car=normal_car *=attacker_car\""
param *.attacker_car[*].forwarding false
param *.attacker_car[*].numApps 1
param *.attacker_car[*].app[0].typename "\"UdpSink\""
param *.attacker_car[*].app[0].localPort 5000
param *.attacker_car[*].routing.deletePeriod 5s
param *.*_car[*].ipv4.arp.typename "\"GlobalArp\""
param *.normal_car[1].numApps 1
param *.normal_car[1].app[0].typename "\"UdpBasicApp\""
param *.normal_car[1].app[0].destAddresses "\"normal_car[6]\""
param *.normal_car[1].app[0].localPort 5000
param *.normal_car[1].app[0].destPort 5000
param *.normal_car[1].app[0].messageLength 100B
param *.normal_car[1].app[0].sendInterval 1s
param *.normal_car[1].app[0].startTime 20s
param *.normal_car[1].app[0].packetName "\"UDPData\""
param *.normal_car[*].numApps 1
param *.normal_car[*].app[0].typename "\"UdpSink\""
param *.normal_car[*].app[0].localPort 5000
param *.normal_car[*].routing.deletePeriod 5s
param *.*_car[*].wlan[*].typename "\"AckingWirelessInterface\""
param *.*_car[*].wlan[*].bitrate 2Mbps
param *.*_car[*].wlan[*].mac.headerLength 23B
param *.*_car[*].wlan[*].radio.typename "\"UnitDiskRadio\""
param *.*_car[*].wlan[*].radio.transmitter.headerLength 96b
param *.*_car[*].wlan[*].radio.transmitter.communicationRange 70m
param *.*_car[*].wlan[*].radio.transmitter.interferenceRange 0m
param *.*_car[*].wlan[*].radio.transmitter.detectionRange 0m
param *.*_car[*].wlan[*].radio.receiver.ignoreInterference true
param *.*_car[*].ipv4.configurator.typename "\"HostAutoConfigurator\""
param *.*_car[*].ipv4.configurator.interfaces "\"wlan0\""
param *.*_car[*].ipv4.configurator.mcastGroups "\"224.0.0.1\""
param *.*_car[*].mobility.typename "\"VeinsInetMobility\""
param *.manager.updateInterval 0.1s
param *.manager.launchConfig "xmldoc(\"arcavacatamap.launchd.xml\")"
param *.manager.moduleType "\"normal_car=networkprojectvanet.veins_inet.AodvCar *=networkprojectvanet.veins_inet.AodvCar\""
param *.manager.moduleDisplayString "\"normal_car='i=veins/node/car;is=vs' *='i=veins/node/car;is=vs'\""
param *.manager.moduleName "\"normal_car=normal_car *=normal_car\""
param *.*_car[*].wlan[0].radio.displayCommunicationRange true
param *.visualizer.networkRouteVisualizer.displayRoutes true

vector 0 Scenario.normal_car[0].wlan[0].radio radioMode:vector ETV
attr interpolationmode sample-hold
attr source radioModeChanged
attr title "Radio mode, vector"
vector 1 Scenario.normal_car[0].wlan[0].radio receptionState:vector ETV
attr interpolationmode sample-hold
attr source receptionStateChanged
attr title "Radio reception state, vector"
vector 2 Scenario.normal_car[0].wlan[0].radio transmissionState:vector ETV
attr interpolationmode sample-hold
attr source transmissionStateChanged
attr title "Radio transmission state, vector"
vector 3 Scenario.normal_car[1].wlan[0].radio radioMode:vector ETV
attr interpolationmode sample-hold
attr source radioModeChanged
attr title "Radio mode, vector"
vector 4 Scenario.normal_car[1].wlan[0].radio receptionState:vector ETV
attr interpolationmode sample-hold
attr source receptionStateChanged
attr title "Radio reception state, vector"
vector 5 Scenario.normal_car[1].wlan[0].radio transmissionState:vector ETV
attr interpolationmode sample-hold
attr source transmissionStateChanged
attr title "Radio transmission state, vector"
vector 6 Scenario.attacker_car[2].wlan[0].radio radioMode:vector ETV
attr interpolationmode sample-hold
attr source radioModeChanged
attr title "Radio mode, vector"
vector 7 Scenario.attacker_car[2].wlan[0].radio receptionState:vector ETV
attr interpolationmode sample-hold
attr source receptionStateChanged
attr title "Radio reception state, vector"
vector 8 Scenario.attacker_car[2].wlan[0].radio transmissionState:vector ETV
attr interpolationmode sample-hold
attr source transmissionStateChanged
attr title "Radio transmission state, vector"
vector 9 Scenario.normal_car[3].wlan[0].radio radioMode:vector ETV
attr interpolationmode sample-hold
attr source radioModeChanged
attr title "Radio mode, vector"
vector 10 Scenario.normal_car[3].wlan[0].radio receptionState:vector ETV
attr interpolationmode sample-hold
attr source receptionStateChanged
attr title "Radio reception state, vector"
vector 11 Scenario.normal_car[3].wlan[0].radio transmissionState:vector ETV
attr interpolationmode sample-hold
attr source transmissionStateChanged
attr title "Radio transmission state, vector"
vector 12 Scenario.normal_car[4].wlan[0].radio radioMode:vector ETV
attr interpolationmode sample-hold
attr source radioModeChanged
attr title "Radio mode, vector"
vector 13 Scenario.normal_car[4].wlan[0].radio receptionState:vector ETV
attr interpolationmode sample-hold
attr source receptionStateChanged
attr title "Radio reception state, vector"
vector 14 Scenario.normal_car[4].wlan[0].radio transmissionState:vector ETV
attr interpolationmode sample-hold
attr source transmissionStateChanged
attr title "Radio transmission state, vector"
vector 15 Scenario.normal_car[5].wlan[0].radio radioMode:vector ETV
attr interpolationmode sample-hold
attr source radioModeChanged
attr title "Radio mode, vector"
vector 16 Scenario.normal_car[5].wlan[0].radio receptionState:vector ETV
attr interpolationmode sample-hold
attr source receptionStateChanged
attr title "Radio reception state, vector"
vector 17 Scenario.normal_car[5].wlan[0].radio transmissionState:vector ETV
attr interpolationmode sample-hold
attr source transmissionStateChanged
attr title "Radio transmission state, vector"
vector 18 Scenario.normal_car[6].wlan[0].radio radioMode:vector ETV
attr interpolationmode sample-hold
attr source radioModeChanged
attr title "Radio mode, vector"
vector 19 Scenario.normal_car[6].wlan[0].radio receptionState:vector ETV
attr interpolationmode sample-hold
attr source receptionStateChanged
attr title "Radio reception state, vector"
vector 20 Scenario.normal_car[6].wlan[0].radio transmissionState:vector ETV
attr interpolationmode sample-hold
attr source transmissionStateChanged
attr title "Radio transmission state, vector"
vector 21 Scenario.normal_car[7].wlan[0].radio radioMode:vector ETV
attr interpolationmode sample-hold
attr source radioModeChanged
attr title "Radio mode, vector"
vector 22 Scenario.normal_car[7].wlan[0].radio receptionState:vector ETV
attr interpolationmode sample-hold
attr source receptionStateChanged
attr title "Radio reception state, vector"
vector 23 Scenario.normal_car[7].wlan[0].radio transmissionState:vector ETV
attr interpolationmode sample-hold
attr source transmissionStateChanged
attr title "Radio transmission state, vector"
vector 24 Scenario.normal_car[8].wlan[0].radio radioMode:vector ETV
attr interpolationmode sample-hold
attr source radioModeChanged
attr title "Radio mode, vector"
vector 25 Scenario.normal_car[8].wlan[0].radio receptionState:vector ETV
attr interpolationmode sample-hold
attr source receptionStateChanged
attr title "Radio reception state, vector"
vector 26 Scenario.normal_car[8].wlan[0].radio transmissionState:vector ETV
attr interpolationmode sample-hold
attr source transmissionStateChanged
attr title "Radio transmission state, vector"
vector 27 Scenario.normal_car[9].wlan[0].radio radioMode:vector ETV
attr interpolationmode sample-hold
attr source radioModeChanged
attr title "Radio mode, vector"
vector 28 Scenario.normal_car[9].wlan[0].radio receptionState:vector ETV
attr interpolationmode sample-hold
attr source receptionStateChanged
attr title "Radio reception state, vector"
vector 29 Scenario.normal_car[9].wlan[0].radio transmissionState:vector ETV
attr interpolationmode sample-hold
attr source transmissionStateChanged
attr title "Radio transmission state, vector"
vector 30 Scenario.normal_car[10].wlan[0].radio radioMode:vector ETV
attr interpolationmode sample-hold
attr source radioModeChanged
attr title "Radio mode, vector"
vector 31 Scenario.normal_car[10].wlan[0].radio receptionState:vector ETV
attr interpolationmode sample-hold
attr source receptionStateChanged
attr title "Radio reception state, vector"
vector 32 Scenario.normal_car[10].wlan[0].radio transmissionState:vector ETV
attr interpolationmode sample-hold
attr source transmissionStateChanged
attr title "Radio transmission state, vector"
vector 33 Scenario.normal_car[11].wlan[0].radio radioMode:vector ETV
attr interpolationmode sample-hold
attr source radioModeChanged
attr title "Radio mode, vector"
vector 34 Scenario.normal_car[11].wlan[0].radio receptionState:vector ETV
attr interpolationmode sample-hold
attr source receptionStateChanged
attr title "Radio reception state, vector"
vector 35 Scenario.normal_car[11].wlan[0].radio transmissionState:vector ETV
attr interpolationmode sample-hold
attr source transmissionStateChanged
attr title "Radio transmission state, vector"
vector 36 Scenario.normal_car[1].app[0] packetSent:vector(packetBytes) ETV
attr interpolationmode none
attr source packetSent
attr title "packets sent, vector(packetBytes)"
vector 37 Scenario.normal_car[1].udp packetSent:vector(packetBytes) ETV
attr interpolationmode none
attr source packetSent
attr title "packets sent, vector(packetBytes)"
vector 38 Scenario.normal_car[1].wlan[0].mac rcvdPkFromHl:vector(packetBytes) ETV
attr interpolationmode none
attr source packetReceivedFromUpper
attr title "packets received from higher layer, vector(packetBytes)"
vector 39 Scenario.normal_car[1].wlan[0].mac.queue packetPushed:vector(packetBytes) ETV
attr interpolationmode none
attr title "packet pushed, vector(packetBytes)"
vector 40 Scenario.normal_car[1].wlan[0].mac.queue queueLength:vector ETV
attr interpolationmode sample-hold
attr source "count(packetPushed) - count(packetPopped) - count(packetRemoved) - count(packetDropped)"
attr title "queue length, vector"
vector 41 Scenario.normal_car[1].wlan[0].mac.queue packetPopped:vector(packetBytes) ETV
attr interpolationmode none
attr title "packet popped, vector(packetBytes)"
vector 42 Scenario.normal_car[1].wlan[0].mac.queue queueingTime:vector ETV
attr interpolationmode none
attr source queueingTime(packetPopped)
attr title "queueing times, vector"
attr unit s
vector 43 Scenario.normal_car[1].wlan[0].mac sentDownPk:vector(packetBytes) ETV
attr interpolationmode none
attr source packetSentToLower
attr title "packets sent to lower layer, vector(packetBytes)"
vector 44 Scenario.attacker_car[2].wlan[0].mac rcvdPkFromLl:vector(packetBytes) ETV
attr interpolationmode none
attr source packetReceivedFromLower
attr title "packets received from lower layer, vector(packetBytes)"
vector 45 Scenario.attacker_car[2].wlan[0].mac passedUpPk:vector(packetBytes) ETV
attr interpolationmode none
attr source packetSentToUpper
attr title "packets passed to higher layer, vector(packetBytes)"
vector 46 Scenario.attacker_car[2].udp packetReceived:vector(packetBytes) ETV
attr interpolationmode none
attr source packetReceived
attr title "packets received, vector(packetBytes)"
vector 47 Scenario.attacker_car[2].udp passedUpPk:vector(count) ETV
attr interpolationmode none
attr source packetSentToUpper
attr title "packets passed up, vector(count)"
vector 48 Scenario.attacker_car[2].udp packetSent:vector(packetBytes) ETV
attr interpolationmode none
attr source packetSent
attr title "packets sent, vector(packetBytes)"
vector 49 Scenario.attacker_car[2].wlan[0].mac rcvdPkFromHl:vector(packetBytes) ETV
attr interpolationmode none
attr source packetReceivedFromUpper
attr title "packets received from higher layer, vector(packetBytes)"
vector 50 Scenario.attacker_car[2].wlan[0].mac.queue packetPushed:vector(packetBytes) ETV
attr interpolationmode none
attr title "packet pushed, vector(packetBytes)"
vector 51 Scenario.attacker_car[2].wlan[0].mac.queue queueLength:vector ETV
attr interpolationmode sample-hold
attr source "count(packetPushed) - count(packetPopped) - count(packetRemoved) - count(packetDropped)"
attr title "queue length, vector"
vector 52 Scenario.attacker_car[2].wlan[0].mac.queue packetPopped:vector(packetBytes) ETV
attr interpolationmode none
attr title "packet popped, vector(packetBytes)"
vector 53 Scenario.attacker_car[2].wlan[0].mac.queue queueingTime:vector ETV
attr interpolationmode none
attr source queueingTime(packetPopped)
attr title "queueing times, vector"
attr unit s
vector 54 Scenario.attacker_car[2].wlan[0].mac sentDownPk:vector(packetBytes) ETV
attr interpolationmode none
attr source packetSentToLower
attr title "packets sent to lower layer, vector(packetBytes)"
vector 55 Scenario.normal_car[1].wlan[0].mac rcvdPkFromLl:vector(packetBytes) ETV
attr interpolationmode none
attr source packetReceivedFromLower
attr title "packets received from lower layer, vector(packetBytes)"
vector 56 Scenario.normal_car[1].wlan[0].mac passedUpPk:vector(packetBytes) ETV
attr interpolationmode none
attr source packetSentToUpper
attr title "packets passed to higher layer, vector(packetBytes)"
vector 57 Scenario.normal_car[1].udp packetReceived:vector(packetBytes) ETV
attr interpolationmode none
attr source packetReceived
attr title "packets received, vector(packetBytes)"
vector 58 Scenario.normal_car[1].udp passedUpPk:vector(count) ETV
attr interpolationmode none
attr source packetSentToUpper
attr title "packets passed up, vector(count)"
vector 59 Scenario.normal_car[4].wlan[0].mac rcvdPkFromLl:vector(packetBytes) ETV
attr interpolationmode none
attr source packetReceivedFromLower
attr title "packets received from lower layer, vector(packetBytes)"
vector 60 Scenario.normal_car[4].wlan[0].mac packetDropNotAddressedToUs:vector(packetBytes) ETV
attr interpolationmode none
attr source packetDropReasonIsNotAddressedToUs(packetDropped)
attr title "packet drop: not addressed to us, vector(packetBytes)"
vector 61 Scenario.normal_car[12].wlan[0].radio radioMode:vector ETV
attr interpolationmode sample-hold
attr source radioModeChanged
attr title "Radio mode, vector"
vector 62 Scenario.normal_car[12].wlan[0].radio receptionState:vector ETV
attr interpolationmode sample-hold
attr source receptionStateChanged
attr title "Radio reception state, vector"
vector 63 Scenario.normal_car[12].wlan[0].radio transmissionState:vector ETV
attr interpolationmode sample-hold
attr source transmissionStateChanged
attr title "Radio transmission state, vector"
vector 64 Scenario.normal_car[13].wlan[0].radio radioMode:vector ETV
attr interpolationmode sample-hold
attr source radioModeChanged
attr title "Radio mode, vector"
vector 65 Scenario.normal_car[13].wlan[0].radio receptionState:vector ETV
attr interpolationmode sample-hold
attr source receptionStateChanged
attr title "Radio reception state, vector"
vector 66 Scenario.normal_car[13].wlan[0].radio transmissionState:vector ETV
attr interpolationmode sample-hold
attr source transmissionStateChanged
attr title "Radio transmission state, vector"
vector 67 Scenario.normal_car[14].wlan[0].radio radioMode:vector ETV
attr interpolationmode sample-hold
attr source radioModeChanged
attr title "Radio mode, vector"
vector 68 Scenario.normal_car[14].wlan[0].radio receptionState:vector ETV
attr interpolationmode sample-hold
attr source receptionStateChanged
attr title "Radio reception state, vector"
vector 69 Scenario.normal_car[14].wlan[0].radio transmissionState:vector ETV
attr interpolationmode sample-hold
attr source transmissionStateChanged
attr title "Radio transmission state, vector"
vector 70 Scenario.normal_car[4].wlan[0].mac passedUpPk:vector(packetBytes) ETV
attr interpolationmode none
attr source packetSentToUpper
attr title "packets passed to higher layer, vector(packetBytes)"
vector 71 Scenario.normal_car[4].udp packetReceived:vector(packetBytes) ETV
attr interpolationmode none
attr source packetReceived
attr title "packets received, vector(packetBytes)"
vector 72 Scenario.normal_car[4].udp passedUpPk:vector(count) ETV
attr interpolationmode none
attr source packetSentToUpper
attr title "packets passed up, vector(count)"
vector 73 Scenario.normal_car[4].udp packetSent:vector(packetBytes) ETV
attr interpolationmode none
attr source packetSent
attr title "packets sent, vector(packetBytes)"
vector 74 Scenario.normal_car[4].wlan[0].mac rcvdPkFromHl:vector(packetBytes) ETV
attr interpolationmode none
attr source packetReceivedFromUpper
attr title "packets received from higher layer, vector(packetBytes)"
vector 75 Scenario.normal_car[4].wlan[0].mac.queue packetPushed:vector(packetBytes) ETV
attr interpolationmode none
attr title "packet pushed, vector(packetBytes)"
vector 76 Scenario.normal_car[4].wlan[0].mac.queue queueLength:vector ETV
attr interpolationmode sample-hold
attr source "count(packetPushed) - count(packetPopped) - count(packetRemoved) - count(packetDropped)"
attr title "queue length, vector"
vector 77 Scenario.normal_car[4].wlan[0].mac.queue packetPopped:vector(packetBytes) ETV
attr interpolationmode none
attr title "packet popped, vector(packetBytes)"
vector 78 Scenario.normal_car[4].wlan[0].mac.queue queueingTime:vector ETV
attr interpolationmode none
attr source queueingTime(packetPopped)
attr title "queueing times, vector"
attr unit s
vector 79 Scenario.normal_car[4].wlan[0].mac sentDownPk:vector(packetBytes) ETV
attr interpolationmode none
attr source packetSentToLower
attr title "packets sent to lower layer, vector(packetBytes)"
vector 80 Scenario.normal_car[6].wlan[0].mac rcvdPkFromLl:vector(packetBytes) ETV
attr interpolationmode none
attr source packetReceivedFromLower
attr title "packets received from lower layer, vector(packetBytes)"
vector 81 Scenario.normal_car[6].wlan[0].mac passedUpPk:vector(packetBytes) ETV
attr interpolationmode none
attr source packetSentToUpper
attr title "packets passed to higher layer, vector(packetBytes)"
vector 82 Scenario.normal_car[6].udp packetReceived:vector(packetBytes) ETV
attr interpolationmode none
attr source packetReceived
attr title "packets received, vector(packetBytes)"
vector 83 Scenario.normal_car[6].udp passedUpPk:vector(count) ETV
attr interpolationmode none
attr source packetSentToUpper
attr title "packets passed up, vector(count)"
vector 84 Scenario.normal_car[6].udp packetSent:vector(packetBytes) ETV
attr interpolationmode none
attr source packetSent
attr title "packets sent, vector(packetBytes)"
vector 85 Scenario.normal_car[6].wlan[0].mac rcvdPkFromHl:vector(packetBytes) ETV
attr interpolationmode none
attr source packetReceivedFromUpper
attr title "packets received from higher layer, vector(packetBytes)"
vector 86 Scenario.normal_car[6].wlan[0].mac.queue packetPushed:vector(packetBytes) ETV
attr interpolationmode none
attr title "packet pushed, vector(packetBytes)"
vector 87 Scenario.normal_car[6].wlan[0].mac.queue queueLength:vector ETV
attr interpolationmode sample-hold
attr source "count(packetPushed) - count(packetPopped) - count(packetRemoved) - count(packetDropped)"
attr title "queue length, vector"
vector 88 Scenario.normal_car[6].wlan[0].mac.queue packetPopped:vector(packetBytes) ETV
attr interpolationmode none
attr title "packet popped, vector(packetBytes)"
vector 89 Scenario.normal_car[6].wlan[0].mac.queue queueingTime:vector ETV
attr interpolationmode none
attr source queueingTime(packetPopped)
attr title "queueing times, vector"
attr unit s
vector 90 Scenario.normal_car[6].wlan[0].mac sentDownPk:vector(packetBytes) ETV
attr interpolationmode none
attr source packetSentToLower
attr title "packets sent to lower layer, vector(packetBytes)"
vector 91 Scenario.normal_car[8].wlan[0].mac rcvdPkFromLl:vector(packetBytes) ETV
attr interpolationmode none
attr source packetReceivedFromLower
attr title "packets received from lower layer, vector(packetBytes)"
vector 92 Scenario.normal_car[8].wlan[0].mac packetDropNotAddressedToUs:vector(packetBytes) ETV
attr interpolationmode none
attr source packetDropReasonIsNotAddressedToUs(packetDropped)
attr title "packet drop: not addressed to us, vector(packetBytes)"
vector 93 Scenario.attacker_car[2].wlan[0].mac packetDropNotAddressedToUs:vector(packetBytes) ETV
attr interpolationmode none
attr source packetDropReasonIsNotAddressedToUs(packetDropped)
attr title "packet drop: not addressed to us, vector(packetBytes)"
vector 94 Scenario.normal_car[6].wlan[0].mac packetDropNotAddressedToUs:vector(packetBytes) ETV
attr interpolationmode none
attr source packetDropReasonIsNotAddressedToUs(packetDropped)
attr title "packet drop: not addressed to us, vector(packetBytes)"
vector 95 Scenario.normal_car[6].app[0] packetReceived:vector(packetBytes) ETV
attr interpolationmode none
attr source packetReceived
attr title "packets received, vector(packetBytes)"
vector 96 Scenario.normal_car[6].app[0] throughput:vector ETV
attr source throughput(packetReceived)
attr title "throughput, vector"
attr unit bps
vector 97 Scenario.normal_car[6].app[0] endToEndDelay:vector ETV
attr interpolationmode none
attr source dataAge(packetReceived)
attr title "end-to-end delay, vector"
attr unit s
vector 98 Scenario.normal_car[6].app[0] rcvdPkSeqNo:vector ETV
attr interpolationmode none
attr source appPkSeqNo(packetReceived)
attr title "received packet sequence number, vector"
vector 99 Scenario.normal_car[1].wlan[0].mac packetDropNotAddressedToUs:vector(packetBytes) ETV
attr interpolationmode none
attr source packetDropReasonIsNotAddressedToUs(packetDropped)
attr title "packet drop: not addressed to us, vector(packetBytes)"
vector 100 Scenario.normal_car[0].wlan[0].mac rcvdPkFromLl:vector(packetBytes) ETV
attr interpolationmode none
attr source packetReceivedFromLower
attr title "packets received from lower layer, vector(packetBytes)"
vector 101 Scenario.normal_car[0].wlan[0].mac passedUpPk:vector(packetBytes) ETV
attr interpolationmode none
attr source packetSentToUpper
attr title "packets passed to higher layer, vector(packetBytes)"
vector 102 Scenario.normal_car[0].udp packetReceived:vector(packetBytes) ETV
attr interpolationmode none
attr source packetReceived
attr title "packets received, vector(packetBytes)"
vector 103 Scenario.normal_car[0].udp passedUpPk:vector(count) ETV
attr interpolationmode none
attr source packetSentToUpper
attr title "packets passed up, vector(count)"
vector 104 Scenario.normal_car[0].udp packetSent:vector(packetBytes) ETV
attr interpolationmode none
attr source packetSent
attr title "packets sent, vector(packetBytes)"
vector 105 Scenario.normal_car[0].wlan[0].mac rcvdPkFromHl:vector(packetBytes) ETV
attr interpolationmode none
attr source packetReceivedFromUpper
attr title "packets received from higher layer, vector(packetBytes)"
vector 106 Scenario.normal_car[0].wlan[0].mac.queue packetPushed:vector(packetBytes) ETV
attr interpolationmode none
attr title "packet pushed, vector(packetBytes)"
vector 107 Scenario.normal_car[0].wlan[0].mac.queue queueLength:vector ETV
attr interpolationmode sample-hold
attr source "count(packetPushed) - count(packetPopped) - count(packetRemoved) - count(packetDropped)"
attr title "queue length, vector"
vector 108 Scenario.normal_car[0].wlan[0].mac.queue packetPopped:vector(packetBytes) ETV
attr interpolationmode none
attr title "packet popped, vector(packetBytes)"
vector 109 Scenario.normal_car[0].wlan[0].mac.queue queueingTime:vector ETV
attr interpolationmode none
attr source queueingTime(packetPopped)
attr title "queueing times, vector"
attr unit s
vector 110 Scenario.normal_car[0].wlan[0].mac sentDownPk:vector(packetBytes) ETV
attr interpolationmode none
attr source packetSentToLower
attr title "packets sent to lower layer, vector(packetBytes)"
vector 111 Scenario.normal_car[3].wlan[0].mac rcvdPkFromLl:vector(packetBytes) ETV
attr interpolationmode none
attr source packetReceivedFromLower
attr title "packets received from lower layer, vector(packetBytes)"
vector 112 Scenario.normal_car[3].wlan[0].mac passedUpPk:vector(packetBytes) ETV
attr interpolationmode none
attr source packetSentToUpper
attr title "packets passed to higher layer, vector(packetBytes)"
vector 113 Scenario.normal_car[3].udp packetReceived:vector(packetBytes) ETV
attr interpolationmode none
attr source packetReceived
attr title "packets received, vector(packetBytes)"
vector 114 Scenario.normal_car[3].udp passedUpPk:vector(count) ETV
attr interpolationmode none
attr source packetSentToUpper
attr title "packets passed up, vector(count)"
vector 115 Scenario.normal_car[3].udp packetSent:vector(packetBytes) ETV
attr interpolationmode none
attr source packetSent
attr title "packets sent, vector(packetBytes)"
vector 116 Scenario.normal_car[3].wlan[0].mac rcvdPkFromHl:vector(packetBytes) ETV
attr interpolationmode none
attr source packetReceivedFromUpper
attr title "packets received from higher layer, vector(packetBytes)"
vector 117 Scenario.normal_car[3].wlan[0].mac.queue packetPushed:vector(packetBytes) ETV
attr interpolationmode none
attr title "packet pushed, vector(packetBytes)"
vector 118 Scenario.normal_car[3].wlan[0].mac.queue queueLength:vector ETV
attr interpolationmode sample-hold
attr source "count(packetPushed) - count(packetPopped) - count(packetRemoved) - count(packetDropped)"
attr title "queue length, vector"
vector 119 Scenario.normal_car[3].wlan[0].mac.queue packetPopped:vector(packetBytes) ETV
attr interpolationmode none
attr title "packet popped, vector(packetBytes)"
vector 120 Scenario.normal_car[3].wlan[0].mac.queue queueingTime:vector ETV
attr interpolationmode none
attr source queueingTime(packetPopped)
attr title "queueing times, vector"
attr unit s
vector 121 Scenario.normal_car[3].wlan[0].mac sentDownPk:vector(packetBytes) ETV
attr interpolationmode none
attr source packetSentToLower
attr title "packets sent to lower layer, vector(packetBytes)"
vector 122 Scenario.normal_car[5].wlan[0].mac rcvdPkFromLl:vector(packetBytes) ETV
attr interpolationmode none
attr source packetReceivedFromLower
attr title "packets received from lower layer, vector(packetBytes)"
vector 123 Scenario.normal_car[5].wlan[0].mac passedUpPk:vector(packetBytes) ETV
attr interpolationmode none
attr source packetSentToUpper
attr title "packets passed to higher layer, vector(packetBytes)"
vector 124 Scenario.normal_car[5].udp packetReceived:vector(packetBytes) ETV
attr interpolationmode none
attr source packetReceived
attr title "packets received, vector(packetBytes)"
vector 125 Scenario.normal_car[5].udp passedUpPk:vector(count) ETV
attr interpolationmode none
attr source packetSentToUpper
attr title "packets passed up, vector(count)"
vector 126 Scenario.normal_car[5].udp packetSent:vector(packetBytes) ETV
attr interpolationmode none
attr source packetSent
attr title "packets sent, vector(packetBytes)"
vector 127 Scenario.normal_car[5].wlan[0].mac rcvdPkFromHl:vector(packetBytes) ETV
attr interpolationmode none
attr source packetReceivedFromUpper
attr title "packets received from higher layer, vector(packetBytes)"
vector 128 Scenario.normal_car[5].wlan[0].mac.queue packetPushed:vector(packetBytes) ETV
attr interpolationmode none
attr title "packet pushed, vector(packetBytes)"
vector 129 Scenario.normal_car[5].wlan[0].mac.queue queueLength:vector ETV
attr interpolationmode sample-hold
attr source "count(packetPushed) - count(packetPopped) - count(packetRemoved) - count(packetDropped)"
attr title "queue length, vector"
vector 130 Scenario.normal_car[5].wlan[0].mac.queue packetPopped:vector(packetBytes) ETV
attr interpolationmode none
attr title "packet popped, vector(packetBytes)"
vector 131 Scenario.normal_car[5].wlan[0].mac.queue queueingTime:vector ETV
attr interpolationmode none
attr source queueingTime(packetPopped)
attr title "queueing times, vector"
attr unit s
vector 132 Scenario.normal_car[5].wlan[0].mac sentDownPk:vector(packetBytes) ETV
attr interpolationmode none
attr source packetSentToLower
attr title "packets sent to lower layer, vector(packetBytes)"
vector 133 Scenario.normal_car[7].wlan[0].mac rcvdPkFromLl:vector(packetBytes) ETV
attr interpolationmode none
attr source packetReceivedFromLower
attr title "packets received from lower layer, vector(packetBytes)"
vector 134 Scenario.normal_car[7].wlan[0].mac passedUpPk:vector(packetBytes) ETV
attr interpolationmode none
attr source packetSentToUpper
attr title "packets passed to higher layer, vector(packetBytes)"
vector 135 Scenario.normal_car[7].udp packetReceived:vector(packetBytes) ETV
attr interpolationmode none
attr source packetReceived
attr title "packets received, vector(packetBytes)"
vector 136 Scenario.normal_car[7].udp passedUpPk:vector(count) ETV
attr interpolationmode none
attr source packetSentToUpper
attr title "packets passed up, vector(count)"
vector 137 Scenario.normal_car[7].udp packetSent:vector(packetBytes) ETV
attr interpolationmode none
attr source packetSent
attr title "packets sent, vector(packetBytes)"
vector 138 Scenario.normal_car[7].wlan[0].mac rcvdPkFromHl:vector(packetBytes) ETV
attr interpolationmode none
attr source packetReceivedFromUpper
attr title "packets received from higher layer, vector(packetBytes)"
vector 139 Scenario.normal_car[7].wlan[0].mac.queue packetPushed:vector(packetBytes) ETV
attr interpolationmode none
attr title "packet pushed, vector(packetBytes)"
vector 140 Scenario.normal_car[7].wlan[0].mac.queue queueLength:vector ETV
attr interpolationmode sample-hold
attr source "count(packetPushed) - count(packetPopped) - count(packetRemoved) - count(packetDropped)"
attr title "queue length, vector"
vector 141 Scenario.normal_car[7].wlan[0].mac.queue packetPopped:vector(packetBytes) ETV
attr interpolationmode none
attr title "packet popped, vector(packetBytes)"
vector 142 Scenario.normal_car[7].wlan[0].mac.queue queueingTime:vector ETV
attr interpolationmode none
attr source queueingTime(packetPopped)
attr title "queueing times, vector"
attr unit s
vector 143 Scenario.normal_car[7].wlan[0].mac sentDownPk:vector(packetBytes) ETV
attr interpolationmode none
attr source packetSentToLower
attr title "packets sent to lower layer, vector(packetBytes)"
vector 144 Scenario.normal_car[9].wlan[0].mac rcvdPkFromLl:vector(packetBytes) ETV
attr interpolationmode none
attr source packetReceivedFromLower
attr title "packets received from lower layer, vector(packetBytes)"
vector 145 Scenario.normal_car[9].wlan[0].mac passedUpPk:vector(packetBytes) ETV
attr interpolationmode none
attr source packetSentToUpper
attr title "packets passed to higher layer, vector(packetBytes)"
vector 146 Scenario.normal_car[9].udp packetReceived:vector(packetBytes) ETV
attr interpolationmode none
attr source packetReceived
attr title "packets received, vector(packetBytes)"
vector 147 Scenario.normal_car[9].udp passedUpPk:vector(count) ETV
attr interpolationmode none
attr source packetSentToUpper
attr title "packets passed up, vector(count)"
vector 148 Scenario.normal_car[9].udp packetSent:vector(packetBytes) ETV
attr interpolationmode none
attr source packetSent
attr title "packets sent, vector(packetBytes)"
vector 149 Scenario.normal_car[9].wlan[0].mac rcvdPkFromHl:vector(packetBytes) ETV
attr interpolationmode none
attr source packetReceivedFromUpper
attr title "packets received from higher layer, vector(packetBytes)"
vector 150 Scenario.normal_car[9].wlan[0].mac.queue packetPushed:vector(packetBytes) ETV
attr interpolationmode none
attr title "packet pushed, vector(packetBytes)"
vector 151 Scenario.normal_car[9].wlan[0].mac.queue queueLength:vector ETV
attr interpolationmode sample-hold
attr source "count(packetPushed) - count(packetPopped) - count(packetRemoved) - count(packetDropped)"
attr title "queue length, vector"
vector 152 Scenario.normal_car[9].wlan[0].mac.queue packetPopped:vector(packetBytes) ETV
attr interpolationmode none
attr title "packet popped, vector(packetBytes)"
vector 153 Scenario.normal_car[9].wlan[0].mac.queue queueingTime:vector ETV
attr interpolationmode none
attr source queueingTime(packetPopped)
attr title "queueing times, vector"
attr unit s
vector 154 Scenario.normal_car[9].wlan[0].mac sentDownPk:vector(packetBytes) ETV
attr interpolationmode none
attr source packetSentToLower
attr title "packets sent to lower layer, vector(packetBytes)"
vector 155 Scenario.normal_car[11].wlan[0].mac rcvdPkFromLl:vector(packetBytes) ETV
attr interpolationmode none
attr source packetReceivedFromLower
attr title "packets received from lower layer, vector(packetBytes)"
vector 156 Scenario.normal_car[11].wlan[0].mac passedUpPk:vector(packetBytes) ETV
attr interpolationmode none
attr source packetSentToUpper
attr title "packets passed to higher layer, vector(packetBytes)"
vector 157 Scenario.normal_car[11].udp packetReceived:vector(packetBytes) ETV
attr interpolationmode none
attr source packetReceived
attr title "packets received, vector(packetBytes)"
vector 158 Scenario.normal_car[11].udp passedUpPk:vector(count) ETV
attr interpolationmode none
attr source packetSentToUpper
attr title "packets passed up, vector(count)"
vector 159 Scenario.normal_car[11].udp packetSent:vector(packetBytes) ETV
attr interpolationmode none
attr source packetSent
attr title "packets sent, vector(packetBytes)"
vector 160 Scenario.normal_car[11].wlan[0].mac rcvdPkFromHl:vector(packetBytes) ETV
attr interpolationmode none
attr source packetReceivedFromUpper
attr title "packets received from higher layer, vector(packetBytes)"
vector 161 Scenario.normal_car[11].wlan[0].mac.queue packetPushed:vector(packetBytes) ETV
attr interpolationmode none
attr title "packet pushed, vector(packetBytes)"
vector 162 Scenario.normal_car[11].wlan[0].mac.queue queueLength:vector ETV
attr interpolationmode sample-hold
attr source "count(packetPushed) - count(packetPopped) - count(packetRemoved) - count(packetDropped)"
attr title "queue length, vector"
vector 163 Scenario.normal_car[11].wlan[0].mac.queue packetPopped:vector(packetBytes) ETV
attr interpolationmode none
attr title "packet popped, vector(packetBytes)"
vector 164 Scenario.normal_car[11].wlan[0].mac.queue queueingTime:vector ETV
attr interpolationmode none
attr source queueingTime(packetPopped)
attr title "queueing times, vector"
attr unit s
vector 165 Scenario.normal_car[11].wlan[0].mac sentDownPk:vector(packetBytes) ETV
attr interpolationmode none
attr source packetSentToLower
attr title "packets sent to lower layer, vector(packetBytes)"
vector 166 Scenario.normal_car[12].wlan[0].mac rcvdPkFromLl:vector(packetBytes) ETV
attr interpolationmode none
attr source packetReceivedFromLower
attr title "packets received from lower layer, vector(packetBytes)"
vector 167 Scenario.normal_car[12].wlan[0].mac passedUpPk:vector(packetBytes) ETV
attr interpolationmode none
attr source packetSentToUpper
attr title "packets passed to higher layer, vector(packetBytes)"
vector 168 Scenario.normal_car[12].udp packetReceived:vector(packetBytes) ETV
attr interpolationmode none
attr source packetReceived
attr title "packets received, vector(packetBytes)"
vector 169 Scenario.normal_car[12].udp passedUpPk:vector(count) ETV
attr interpolationmode none
attr source packetSentToUpper
attr title "packets passed up, vector(count)"
vector 170 Scenario.normal_car[12].udp packetSent:vector(packetBytes) ETV
attr interpolationmode none
attr source packetSent
attr title "packets sent, vector(packetBytes)"
vector 171 Scenario.normal_car[12].wlan[0].mac rcvdPkFromHl:vector(packetBytes) ETV
attr interpolationmode none
attr source packetReceivedFromUpper
attr title "packets received from higher layer, vector(packetBytes)"
vector 172 Scenario.normal_car[12].wlan[0].mac.queue packetPushed:vector(packetBytes) ETV
attr interpolationmode none
attr title "packet pushed, vector(packetBytes)"
vector 173 Scenario.normal_car[12].wlan[0].mac.queue queueLength:vector ETV
attr interpolationmode sample-hold
attr source "count(packetPushed) - count(packetPopped) - count(packetRemoved) - count(packetDropped)"
attr title "queue length, vector"
vector 174 Scenario.normal_car[12].wlan[0].mac.queue packetPopped:vector(packetBytes) ETV
attr interpolationmode none
attr title "packet popped, vector(packetBytes)"
vector 175 Scenario.normal_car[12].wlan[0].mac.queue queueingTime:vector ETV
attr interpolationmode none
attr source queueingTime(packetPopped)
attr title "queueing times, vector"
attr unit s
vector 176 Scenario.normal_car[12].wlan[0].mac sentDownPk:vector(packetBytes) ETV
attr interpolationmode none
attr source packetSentToLower
attr title "packets sent to lower layer, vector(packetBytes)"
vector 177 Scenario.normal_car[0].wlan[0].mac packetDropNotAddressedToUs:vector(packetBytes) ETV
attr interpolationmode none
attr source packetDropReasonIsNotAddressedToUs(packetDropped)
attr title "packet drop: not addressed to us, vector(packetBytes)"
vector 178 Scenario.normal_car[3].wlan[0].mac packetDropNotAddressedToUs:vector(packetBytes) ETV
attr interpolationmode none
attr source packetDropReasonIsNotAddressedToUs(packetDropped)
attr title "packet drop: not addressed to us, vector(packetBytes)"
vector 179 Scenario.normal_car[8].wlan[0].mac passedUpPk:vector(packetBytes) ETV
attr interpolationmode none
attr source packetSentToUpper
attr title "packets passed to higher layer, vector(packetBytes)"
vector 180 Scenario.normal_car[8].udp packetReceived:vector(packetBytes) ETV
attr interpolationmode none
attr source packetReceived
attr title "packets received, vector(packetBytes)"
vector 181 Scenario.normal_car[8].udp passedUpPk:vector(count) ETV
attr interpolationmode none
attr source packetSentToUpper
attr title "packets passed up, vector(count)"
vector 182 Scenario.normal_car[5].wlan[0].mac packetDropNotAddressedToUs:vector(packetBytes) ETV
attr interpolationmode none
attr source packetDropReasonIsNotAddressedToUs(packetDropped)
attr title "packet drop: not addressed to us, vector(packetBytes)"
vector 183 Scenario.normal_car[8].udp packetSent:vector(packetBytes) ETV
attr interpolationmode none
attr source packetSent
attr title "packets sent, vector(packetBytes)"
vector 184 Scenario.normal_car[8].wlan[0].mac rcvdPkFromHl:vector(packetBytes) ETV
attr interpolationmode none
attr source packetReceivedFromUpper
attr title "packets received from higher layer, vector(packetBytes)"
vector 185 Scenario.normal_car[8].wlan[0].mac.queue packetPushed:vector(packetBytes) ETV
attr interpolationmode none
attr title "packet pushed, vector(packetBytes)"
vector 186 Scenario.normal_car[8].wlan[0].mac.queue queueLength:vector ETV
attr interpolationmode sample-hold
attr source "count(packetPushed) - count(packetPopped) - count(packetRemoved) - count(packetDropped)"
attr title "queue length, vector"
vector 187 Scenario.normal_car[8].wlan[0].mac.queue packetPopped:vector(packetBytes) ETV
attr interpolationmode none
attr title "packet popped, vector(packetBytes)"
vector 188 Scenario.normal_car[8].wlan[0].mac.queue queueingTime:vector ETV
attr interpolationmode none
attr source queueingTime(packetPopped)
attr title "queueing times, vector"
attr unit s
vector 189 Scenario.normal_car[8].wlan[0].mac sentDownPk:vector(packetBytes) ETV
attr interpolationmode none
attr source packetSentToLower
attr title "packets sent to lower layer, vector(packetBytes)"
vector 190 Scenario.normal_car[10].wlan[0].mac rcvdPkFromLl:vector(packetBytes) ETV
attr interpolationmode none
attr source packetReceivedFromLower
attr title "packets received from lower layer, vector(packetBytes)"
vector 191 Scenario.normal_car[10].wlan[0].mac passedUpPk:vector(packetBytes) ETV
attr interpolationmode none
attr source packetSentToUpper
attr title "packets passed to higher layer, vector(packetBytes)"
vector 192 Scenario.normal_car[10].udp packetReceived:vector(packetBytes) ETV
attr interpolationmode none
attr source packetReceived
attr title "packets received, vector(packetBytes)"
vector 193 Scenario.normal_car[10].udp passedUpPk:vector(count) ETV
attr interpolationmode none
attr source packetSentToUpper
attr title "packets passed up, vector(count)"
vector 194 Scenario.normal_car[10].udp packetSent:vector(packetBytes) ETV
attr interpolationmode none
attr source packetSent
attr title "packets sent, vector(packetBytes)"
vector 195 Scenario.normal_car[10].wlan[0].mac rcvdPkFromHl:vector(packetBytes) ETV
attr interpolationmode none
attr source packetReceivedFromUpper
attr title "packets received from higher layer, vector(packetBytes)"
vector 196 Scenario.normal_car[10].wlan[0].mac.queue packetPushed:vector(packetBytes) ETV
attr interpolationmode none
attr title "packet pushed, vector(packetBytes)"
vector 197 Scenario.normal_car[10].wlan[0].mac.queue queueLength:vector ETV
attr interpolationmode sample-hold
attr source "count(packetPushed) - count(packetPopped) - count(packetRemoved) - count(packetDropped)"
attr title "queue length, vector"
vector 198 Scenario.normal_car[10].wlan[0].mac.queue packetPopped:vector(packetBytes) ETV
attr interpolationmode none
attr title "packet popped, vector(packetBytes)"
vector 199 Scenario.normal_car[10].wlan[0].mac.queue queueingTime:vector ETV
attr interpolationmode none
attr source queueingTime(packetPopped)
attr title "queueing times, vector"
attr unit s
vector 200 Scenario.normal_car[10].wlan[0].mac sentDownPk:vector(packetBytes) ETV
attr interpolationmode none
attr source packetSentToLower
attr title "packets sent to lower layer, vector(packetBytes)"
vector 201 Scenario.normal_car[13].wlan[0].mac rcvdPkFromLl:vector(packetBytes) ETV
attr interpolationmode none
attr source packetReceivedFromLower
attr title "packets received from lower layer, vector(packetBytes)"
vector 202 Scenario.normal_car[13].wlan[0].mac passedUpPk:vector(packetBytes) ETV
attr interpolationmode none
attr source packetSentToUpper
attr title "packets passed to higher layer, vector(packetBytes)"
vector 203 Scenario.normal_car[13].udp packetReceived:vector(packetBytes) ETV
attr interpolationmode none
attr source packetReceived
attr title "packets received, vector(packetBytes)"
vector 204 Scenario.normal_car[13].udp passedUpPk:vector(count) ETV
attr interpolationmode none
attr source packetSentToUpper
attr title "packets passed up, vector(count)"
vector 205 Scenario.normal_car[13].udp packetSent:vector(packetBytes) ETV
attr interpolationmode none
attr source packetSent
attr title "packets sent, vector(packetBytes)"
vector 206 Scenario.normal_car[13].wlan[0].mac rcvdPkFromHl:vector(packetBytes) ETV
attr interpolationmode none
attr source packetReceivedFromUpper
attr title "packets received from higher layer, vector(packetBytes)"
vector 207 Scenario.normal_car[13].wlan[0].mac.queue packetPushed:vector(packetBytes) ETV
attr interpolationmode none
attr title "packet pushed, vector(packetBytes)"
vector 208 Scenario.normal_car[13].wlan[0].mac.queue queueLength:vector ETV
attr interpolationmode sample-hold
attr source "count(packetPushed) - count(packetPopped) - count(packetRemoved) - count(packetDropped)"
attr title "queue length, vector"
vector 209 Scenario.normal_car[13].wlan[0].mac.queue packetPopped:vector(packetBytes) ETV
attr interpolationmode none
attr title "packet popped, vector(packetBytes)"
vector 210 Scenario.normal_car[13].wlan[0].mac.queue queueingTime:vector ETV
attr interpolationmode none
attr source queueingTime(packetPopped)
attr title "queueing times, vector"
attr unit s
vector 211 Scenario.normal_car[13].wlan[0].mac sentDownPk:vector(packetBytes) ETV
attr interpolationmode none
attr source packetSentToLower
attr title "packets sent to lower layer, vector(packetBytes)"
vector 212 Scenario.normal_car[14].wlan[0].mac rcvdPkFromLl:vector(packetBytes) ETV
attr interpolationmode none
attr source packetReceivedFromLower
attr title "packets received from lower layer, vector(packetBytes)"
vector 213 Scenario.normal_car[14].wlan[0].mac passedUpPk:vector(packetBytes) ETV
attr interpolationmode none
attr source packetSentToUpper
attr title "packets passed to higher layer, vector(packetBytes)"
vector 214 Scenario.normal_car[14].udp packetReceived:vector(packetBytes) ETV
attr interpolationmode none
attr source packetReceived
attr title "packets received, vector(packetBytes)"
vector 215 Scenario.normal_car[14].udp passedUpPk:vector(count) ETV
attr interpolationmode none
attr source packetSentToUpper
attr title "packets passed up, vector(count)"
vector 216 Scenario.normal_car[14].udp packetSent:vector(packetBytes) ETV
attr interpolationmode none
attr source packetSent
attr title "packets sent, vector(packetBytes)"
vector 217 Scenario.normal_car[14].wlan[0].mac rcvdPkFromHl:vector(packetBytes) ETV
attr interpolationmode none
attr source packetReceivedFromUpper
attr title "packets received from higher layer, vector(packetBytes)"
vector 218 Scenario.normal_car[14].wlan[0].mac.queue packetPushed:vector(packetBytes) ETV
attr interpolationmode none
attr title "packet pushed, vector(packetBytes)"
vector 219 Scenario.normal_car[14].wlan[0].mac.queue queueLength:vector ETV
attr interpolationmode sample-hold
attr source "count(packetPushed) - count(packetPopped) - count(packetRemoved) - count(packetDropped)"
attr title "queue length, vector"
vector 220 Scenario.normal_car[14].wlan[0].mac.queue packetPopped:vector(packetBytes) ETV
attr interpolationmode none
attr title "packet popped, vector(packetBytes)"
vector 221 Scenario.normal_car[14].wlan[0].mac.queue queueingTime:vector ETV
attr interpolationmode none
attr source queueingTime(packetPopped)
attr title "queueing times, vector"
attr unit s
vector 222 Scenario.normal_car[14].wlan[0].mac sentDownPk:vector(packetBytes) ETV
attr interpolationmode none
attr source packetSentToLower
attr title "packets sent to lower layer, vector(packetBytes)"
vector 223 Scenario.normal_car[7].wlan[0].mac packetDropNotAddressedToUs:vector(packetBytes) ETV
attr interpolationmode none
attr source packetDropReasonIsNotAddressedToUs(packetDropped)
attr title "packet drop: not addressed to us, vector(packetBytes)"
vector 224 Scenario.normal_car[9].wlan[0].mac packetDropNotAddressedToUs:vector(packetBytes) ETV
attr interpolationmode none
attr source packetDropReasonIsNotAddressedToUs(packetDropped)
attr title "packet drop: not addressed to us, vector(packetBytes)"
vector 225 Scenario.normal_car[10].wlan[0].mac packetDropNotAddressedToUs:vector(packetBytes) ETV
attr interpolationmode none
attr source packetDropReasonIsNotAddressedToUs(packetDropped)
attr title "packet drop: not addressed to us, vector(packetBytes)"
vector 226 Scenario.normal_car[11].wlan[0].mac packetDropNotAddressedToUs:vector(packetBytes) ETV
attr interpolationmode none
attr source packetDropReasonIsNotAddressedToUs(packetDropped)
attr title "packet drop: not addressed to us, vector(packetBytes)"
vector 227 Scenario.normal_car[12].wlan[0].mac packetDropNotAddressedToUs:vector(packetBytes) ETV
attr interpolationmode none
attr source packetDropReasonIsNotAddressedToUs(packetDropped)
attr title "packet drop: not addressed to us, vector(packetBytes)"
vector 228 Scenario.normal_car[0].app[0] throughput:vector ETV
attr source throughput(packetReceived)
attr title "throughput, vector"
attr unit bps
vector 229 Scenario.normal_car[1].app[0] throughput:vector ETV
attr source throughput(packetReceived)
attr title "throughput, vector"
attr unit bps
vector 230 Scenario.attacker_car[2].app[0] throughput:vector ETV
attr source throughput(packetReceived)
attr title "throughput, vector"
attr unit bps
vector 231 Scenario.normal_car[3].app[0] throughput:vector ETV
attr source throughput(packetReceived)
attr title "throughput, vector"
attr unit bps
vector 232 Scenario.normal_car[4].app[0] throughput:vector ETV
attr source throughput(packetReceived)
attr title "throughput, vector"
attr unit bps
vector 233 Scenario.normal_car[5].app[0] throughput:vector ETV
attr source throughput(packetReceived)
attr title "throughput, vector"
attr unit bps
vector 234 Scenario.normal_car[7].app[0] throughput:vector ETV
attr source throughput(packetReceived)
attr title "throughput, vector"
attr unit bps
vector 235 Scenario.normal_car[8].app[0] throughput:vector ETV
attr source throughput(packetReceived)
attr title "throughput, vector"
attr unit bps
vector 236 Scenario.normal_car[9].app[0] throughput:vector ETV
attr source throughput(packetReceived)
attr title "throughput, vector"
attr unit bps
vector 237 Scenario.normal_car[10].app[0] throughput:vector ETV
attr source throughput(packetReceived)
attr title "throughput, vector"
attr unit bps
vector 238 Scenario.normal_car[11].app[0] throughput:vector ETV
attr source throughput(packetReceived)
attr title "throughput, vector"
attr unit bps
vector 239 Scenario.normal_car[12].app[0] throughput:vector ETV
attr source throughput(packetReceived)
attr title "throughput, vector"
attr unit bps
vector 240 Scenario.normal_car[13].app[0] throughput:vector ETV
attr source throughput(packetReceived)
attr title "throughput, vector"
attr unit bps
vector 241 Scenario.normal_car[14].app[0] throughput:vector ETV
attr source throughput(packetReceived)
attr title "throughput, vector"
attr unit bps
0	2	0.1	0
0	2	0.1	0
0	2	0.1	4
1	2	0.1	1
1	1651	28.101363513694	3
1	1670	28.101727513694	1
1	1717	29.002388477078	3
1	1732	29.002736477078	1
1	1812	29.324060967691	3
1	1827	29.324408967691	1
1	1897	29.32980167826	3
1	1916	29.33014967826	1
1	1998	29.801964002191	3
1	2013	29.802312002191	1
1	2080	29.807288448489	3
1	2106	29.807620448489	1
1	2127	29.811468731321	3
1	2146	29.811816731321	1
1	2321	30.440101116125	3
1	2336	30.440449116125	1
1	2405	30.442638693808	3
1	2431	30.442970693808	1
1	2454	30.444612567133	3
1	2473	30.444960567133	1
1	2841	33.404352814359	3
1	2865	33.404684814359	1
1	2894	33.406660204743	3
1	2940	33.407008204743	1
1	3069	33.411259240875	3
1	3093	33.411591240875	1
1	3177	33.414862206515	3
1	3233	33.415210206515	1
1	3286	33.415839963094	3
1	3315	33.416171963094	1
1	3357	33.416824120722	3
1	3407	33.417476120722	1
1	3427	33.417476296075	3
1	3518	33.418128296075	1
1	3546	33.418128471428	3
1	3644	33.418780471428	1
1	3671	33.418780646781	3
1	3744	33.419432646781	1
1	3767	33.419432822134	3
1	3840	33.420084822134	1
1	4128	34.00065230771	3
1	4155	34.00130430771	1
1	4272	35.00065239737	3
1	4297	35.00130439737	1
1	4952	37.326349788011	3
1	4983	37.326697788011	1
1	4988	37.326697793904	3
1	5017	37.327029793904	1
1	5089	37.328141677829	3
1	5110	37.328473677829	1
1	5130	37.328661884856	3
1	5153	37.329009884856	1
1	5410	37.337745646239	3
1	5438	37.338397646239	1
1	6358	40.32814070474	3
1	6400	40.32847270474	1
1	6420	40.328995244201	3
1	6460	40.329343244201	1
1	6499	40.42919262306	3
1	6534	40.42955662306	1
1	6942	40.81195791758	3
1	6974	40.81230591758	1
1	7004	40.812498050432	3
1	7031	40.812846050432	1
1	7102	40.814498927665	3
1	7121	40.814846927665	1
1	7215	40.817247852172	3
1	7230	40.817595852172	1
2	2	0.1	1
2	1758	29.006695102245	2
2	1773	29.007043102245	1
2	1853	29.327053442299	2
2	1868	29.327401442299	1
2	2039	29.806939985357	2
2	2054	29.807287985357	1
2	2366	30.442290323812	2
2	2381	30.442638323812	1
2	3001	33.410910850621	2
2	3039	33.411258850621	1
2	3157	33.41479084596	2
2	3210	33.41512284596	1
2	3412	33.417476120722	2
2	3503	33.418128120722	1
2	3526	33.418128315849	2
2	3630	33.418780315849	1
2	3652	33.418780510976	2
2	3733	33.419432510976	1
2	3752	33.419432706103	2
2	3830	33.420084706103	1
2	3848	33.42008490123	2
2	3905	33.42073690123	1
2	4159	34.00130430771	2
2	4185	34.00195630771	1
2	4301	35.00130439737	2
2	4327	35.00195639737	1
2	7158	40.815477287846	2
2	7173	40.815825287846	1
3	2	0.1	0
3	2	0.1	0
3	2	0.1	4
4	2	0.1	1
4	410	20.003312539546	3
4	432	20.003644539546	1
4	835	27.361835922546	3
4	863	27.362167922546	1
4	887	27.366294983559	3
4	914	27.366642983559	1
4	971	27.367258857274	3
4	988	27.367590857274	1
4	1042	27.368243302798	3
4	1087	27.368895302798	1
4	1101	27.36889552556	3
4	1156	27.36954752556	1
4	1170	27.369547748322	3
4	1225	27.370199748322	1
4	1239	27.370199971084	3
4	1294	27.370851971084	1
4	1308	27.370852193846	3
4	1363	27.371504193846	1
4	1377	27.371504416608	3
4	1433	27.372156416608	1
4	1447	27.37215663937	3
4	1503	27.37280863937	1
4	1514	27.372808862132	3
4	1554	27.373460862132	1
4	1759	29.006695253765	3
4	1774	29.007043253765	1
4	1854	29.327053566358	3
4	1869	29.327401566358	1
4	2040	29.806940063582	3
4	2055	29.807288063582	1
4	2077	29.807288380253	3
4	2102	29.807620380253	1
4	2367	30.442290347941	3
4	2382	30.442638347941	1
4	2404	30.442638676425	3
4	2429	30.442970676425	1
4	2455	30.444612588622	3
4	2478	30.444960588622	1
4	2844	33.404352907392	3
4	2869	33.404684907392	1
4	2891	33.406660108204	3
4	2925	33.407008108204	2
4	2956	33.407303120262	1
4	3283	33.415839866555	3
4	3298	33.416171866555	1
4	3349	33.416824024183	3
4	3394	33.417476024183	1
4	3416	33.417476199536	3
4	3506	33.418128199536	1
4	3534	33.418128374889	3
4	3634	33.418780374889	1
4	3659	33.418780550242	3
4	3735	33.419432550242	1
4	3757	33.419432725595	3
4	3831	33.420084725595	1
4	4125	34.000652268778	3
4	4151	34.001304268778	1
4	4274	35.000652452624	3
4	4303	35.001304452624	1
4	4576	37.00511553872	3
4	4591	37.00546353872	1
4	4622	37.006313488234	3
4	4637	37.006661488234	1
4	4663	37.006661695797	3
4	4693	37.006993695797	1
4	4772	37.32328431882	3
4	4795	37.32363231882	1
4	4812	37.323632471882	3
4	4861	37.323964471882	2
4	4876	37.324214401428	1
4	5266	37.3354570563	3
4	5283	37.3357890563	1
4	5329	37.336441256388	3
4	5358	37.337093256388	1
4	5511	38.00065232477	3
4	5536	38.00130432477	1
4	5828	40.003413670435	3
4	5855	40.003745670435	1
4	5878	40.005598513038	3
4	5893	40.005946513038	1
4	5931	40.006901834754	3
4	5958	40.007249834754	1
4	5982	40.00792538231	3
4	5997	40.00827338231	1
4	6089	40.321145616518	3
4	6104	40.321493616518	1
4	6130	40.321493884635	3
4	6160	40.321825884635	1
4	6187	40.324178651588	3
4	6218	40.324526651588	1
4	6239	40.325693713441	3
4	6254	40.326041713441	1
4	6611	40.802783566169	3
4	6626	40.803131566169	1
4	6654	40.805892370607	3
4	6677	40.806240370607	1
4	6694	40.806240546966	3
4	6724	40.806572546966	1
4	7312	40.81948494839	3
4	7328	40.81981694839	1
4	7375	40.820469127452	3
4	7403	40.821121127452	1
4	7541	41.000652216076	3
4	7568	41.001304216076	1
4	7732	42.000652401666	3
4	7764	42.001304401666	1
4	8088	44.006523216245	3
4	8120	44.006871216245	1
4	8125	44.006871217623	3
4	8154	44.007203217623	1
4	8478	48.40203838323	3
4	8506	48.40237038323	1
4	8852	55.002191979905	3
4	8880	55.002523979905	1
5	2	0.1	1
5	388	20.002964223082	2
5	400	20.003312223082	1
5	463	20.323575946825	2
5	475	20.323923946825	1
5	508	20.80422132872	2
5	520	20.80456932872	1
5	558	21.444289728099	2
5	570	21.444637728099	1
5	679	24.403117818482	2
5	693	24.403465818482	1
5	804	27.361487673026	2
5	819	27.361835673026	1
5	1001	27.367590857274	2
5	1027	27.368242857274	1
5	1032	27.368243080036	2
5	1076	27.368895080036	1
5	1090	27.368895302798	2
5	1145	27.369547302798	1
5	1159	27.36954752556	2
5	1214	27.37019952556	1
5	1228	27.370199748322	2
5	1283	27.370851748322	1
5	1297	27.370851971084	2
5	1352	27.371503971084	1
5	1366	27.371504193846	2
5	1422	27.372156193846	1
5	1436	27.372156416608	2
5	1492	27.372808416608	1
5	1608	28	2
5	1623	28.000652	1
5	1649	28.101363281473	2
5	1664	28.101727281473	1
5	1716	29.002388325558	2
5	1731	29.002736325558	1
5	1811	29.324060843632	2
5	1826	29.324408843632	1
5	1997	29.801963923966	2
5	2012	29.802311923966	1
5	2320	30.440101091996	2
5	2335	30.440449091996	1
5	2804	33.404004553762	2
5	2819	33.404352553762	1
5	3308	33.416171866555	2
5	3339	33.416823866555	1
5	3342	33.416823945369	2
5	3391	33.417475945369	1
5	3397	33.417476024183	2
5	3494	33.418128024183	1
5	3497	33.418128102997	2
5	3617	33.418780102997	1
5	3620	33.418780181811	2
5	3721	33.419432181811	1
5	4097	34	2
5	4112	34.000652	1
5	4239	35	2
5	4254	35.000652	1
5	4384	36	2
5	4399	36.000652	1
5	4428	36.100931661723	2
5	4443	36.101295661723	1
5	4529	37.00368459089	2
5	4544	37.00403259089	1
5	4724	37.322842169742	2
5	4739	37.323190169742	1
5	5289	37.3357890563	2
5	5318	37.3364410563	1
5	5481	38	2
5	5496	38.000652	1
5	5667	39	2
5	5682	39.000652	1
5	5711	39.102249749948	2
5	5726	39.102613749948	1
5	5784	40.003065317309	2
5	5799	40.003413317309	1
5	6038	40.320496401758	2
5	6053	40.320844401758	1
5	6564	40.801790760851	2
5	6579	40.802138760851	1
5	7334	40.81981694839	2
5	7364	40.82046894839	1
5	7515	41	2
5	7530	41.000652	1
5	7701	42	2
5	7716	42.000652	1
5	7881	43	2
5	7896	43.000652	1
5	7923	43.100806547556	2
5	7938	43.101170547556	1
5	8042	44.00326554161	2
5	8057	44.00361354161	1
5	8187	44.321266458007	2
5	8202	44.321614458007	1
5	8242	44.80207184294	2
5	8257	44.80241984294	1
5	8307	45.442373487526	2
5	8322	45.442721487526	1
5	8453	48.401690038088	2
5	8468	48.402038038088	1
5	8670	51.361586008724	2
5	8685	51.361934008724	1
5	8827	55.001843625829	2
5	8842	55.002191625829	1
5	8915	55.32331263434	2
5	8930	55.32366063434	1
5	8968	55.804104966155	2
5	8983	55.804452966155	1
5	9025	56.440485506356	2
5	9040	56.440833506356	1
5	9151	59.400480492006	2
5	9166	59.400828492006	1
6	52	3.8	0
6	52	3.8	0
6	52	3.8	4
7	52	3.8	1
7	389	20.002964381314	3
7	401	20.003312381314	1
7	464	20.323576100893	3
7	476	20.323924100893	1
7	509	20.804221472127	3
7	521	20.804569472127	1
7	559	21.444289852637	3
7	571	21.444637852637	1
7	680	24.40311791466	3
7	694	24.40346591466	1
7	805	27.361487797786	3
7	820	27.361835797786	1
7	885	27.366294859976	3
7	900	27.366642859976	1
7	969	27.367258733691	3
7	984	27.367590733691	1
7	1003	27.367590982034	3
7	1028	27.368242982034	1
7	1037	27.368243179215	3
7	1078	27.368895179215	2
7	1080	27.368895204796	1
7	1095	27.368895401977	3
7	1147	27.369547401977	2
7	1149	27.369547427558	1
7	1164	27.369547624739	3
7	1216	27.370199624739	2
7	1218	27.37019965032	1
7	1233	27.370199847501	3
7	1285	27.370851847501	2
7	1287	27.370851873082	1
7	1302	27.370852070263	3
7	1354	27.371504070263	2
7	1356	27.371504095844	1
7	1371	27.371504293025	3
7	1424	27.372156293025	2
7	1426	27.372156318606	1
7	1441	27.372156515787	3
7	1494	27.372808515787	2
7	1496	27.372808541368	1
7	1510	27.372808738549	3
7	1547	27.373460738549	1
7	1609	28.000000138765	3
7	1624	28.000652138765	1
7	1650	28.101363422392	3
7	1665	28.101727422392	1
7	1718	29.002388481256	3
7	1737	29.002736481256	1
7	1813	29.324061002638	3
7	1832	29.324409002638	1
7	1999	29.801964087296	3
7	2018	29.802312087296	1
7	2042	29.806940216923	3
7	2065	29.807288216923	1
7	2322	30.440101259611	3
7	2341	30.440449259611	1
7	2369	30.44229050881	3
7	2392	30.44263850881	1
7	2807	33.404004730577	3
7	2830	33.404352730577	1
7	2892	33.406660128294	3
7	2930	33.407008128294	1
7	3002	33.410910934403	3
7	3040	33.411258934403	1
7	3158	33.414790929742	3
7	3211	33.415122929742	2
7	3239	33.415210289743	1
7	3284	33.415839886645	3
7	3309	33.416171886645	1
7	3317	33.41617204337	3
7	3351	33.41682404337	1
7	3353	33.416824044273	3
7	3402	33.417476044273	2
7	3413	33.417476122184	1
7	3417	33.417476200998	3
7	3508	33.418128200998	2
7	3513	33.418128219626	1
7	3516	33.418128279812	3
7	3627	33.418780279812	2
7	3633	33.418780358626	3
7	3728	33.419432358626	2
7	3738	33.419432594758	1
7	3759	33.419432745685	3
7	3833	33.420084745685	2
7	3835	33.420084789885	1
7	3855	33.420084985012	3
7	3906	33.420736985012	1
7	4100	34.000000176558	3
7	4120	34.000652176558	1
7	4122	34.00065217826	3
7	4149	34.00130417826	1
7	4163	34.001304444046	3
7	4188	34.001956444046	1
7	4242	35.000000175095	3
7	4259	35.000652175095	1
7	4266	35.0006522779	3
7	4291	35.0013042779	1
7	4311	35.001304618888	3
7	4339	35.001956618888	1
7	4387	36.000000173029	3
7	4404	36.000652173029	1
7	4431	36.10093183446	3
7	4454	36.10129583446	1
7	4532	37.003684763481	3
7	4555	37.004032763481	1
7	4623	37.006313523206	3
7	4642	37.006661523206	1
7	4727	37.322842342076	3
7	4750	37.323190342076	1
7	4771	37.323284299548	3
7	4786	37.323632299548	1
7	4899	37.325253191063	3
7	4914	37.325601191063	1
7	4953	37.32634980001	3
7	4989	37.32669780001	1
7	5090	37.328141689828	3
7	5112	37.328473689828	1
7	5182	37.330406135166	3
7	5216	37.330738135166	1
7	5265	37.335457037028	3
7	5281	37.335789037028	1
7	5296	37.335789228634	3
7	5326	37.336441228634	1
7	5328	37.336441237116	3
7	5356	37.337093237116	1
7	5367	37.33709342361	3
7	5393	37.33774542361	1
7	5412	37.337745658238	3
7	5440	37.338397658238	1
7	5485	38.000000172901	3
7	5506	38.000652172901	1
7	5508	38.000652180942	3
7	5534	38.001304180942	1
7	5548	38.001304495588	3
7	5577	38.001956495588	1
7	5587	38.001956601788	3
7	5617	38.002608601788	1
7	5670	39.000000174899	3
7	5687	39.000652174899	1
7	5714	39.102249925017	3
7	5737	39.102613925017	1
7	5787	40.003065493872	3
7	5810	40.003413493872	1
7	5879	40.005598657934	3
7	5898	40.005946657934	1
7	5928	40.006901664922	3
7	5943	40.007249664922	1
7	6041	40.320496578498	3
7	6064	40.320844578498	1
7	6090	40.321145707895	3
7	6109	40.321493707895	1
7	6183	40.324178475147	3
7	6198	40.324526475147	1
7	6289	40.327792505545	3
7	6344	40.328140505545	2
7	6380	40.32822801936	1
7	6567	40.801790937907	3
7	6590	40.802138937907	1
7	6653	40.80589236991	3
7	6668	40.80624036991	1
7	6743	40.807817664294	3
7	6758	40.808165664294	1
7	6887	40.811205082529	3
7	6914	40.811553082529	1
7	7270	40.818642545993	3
7	7285	40.818974545993	1
7	7311	40.819484947693	3
7	7326	40.819816947693	1
7	7341	40.819817125446	3
7	7372	40.820469125446	1
7	7374	40.820469126755	3
7	7401	40.821121126755	1
7	7412	40.821121279391	3
7	7438	40.821773279391	1
7	7518	41.000000177094	3
7	7538	41.000652177094	1
7	7540	41.00065217846	3
7	7566	41.00130417846	1
7	7577	41.001304367391	3
7	7602	41.001956367391	1
7	7703	42.000000177126	3
7	7719	42.000652177126	1
7	7726	42.000652226549	3
7	7752	42.001304226549	1
7	7770	42.001304547709	3
7	7798	42.001956547709	1
7	7883	43.000000177193	3
7	7899	43.000652177193	1
7	7925	43.100806724732	3
7	7944	43.101170724732	1
7	8043	44.003265718776	3
7	8058	44.003613718776	1
7	8085	44.006523040457	3
7	8100	44.006871040457	1
7	8188	44.321266635217	3
7	8203	44.321614635217	1
7	8243	44.8020720201	3
7	8258	44.8024200201	1
7	8308	45.442373664713	3
7	8323	45.442721664713	1
7	8454	48.401690210659	3
7	8469	48.402038210659	1
7	8671	51.36158618464	3
7	8686	51.36193418464	1
7	8828	55.001843802867	3
7	8843	55.002191802867	1
7	8916	55.323312811344	3
7	8931	55.323660811344	1
7	8969	55.804105143158	3
7	8984	55.804453143158	1
7	9026	56.44048568318	3
7	9041	56.44083368318	1
7	9152	59.400480655836	3
7	9167	59.400828655836	1
8	52	3.8	1
8	409	20.003312381314	2
8	431	20.003644381314	1
8	828	27.361835797786	2
8	860	27.362167797786	1
8	2073	29.807288216923	2
8	2099	29.807620216923	1
8	2400	30.44263850881	2
8	2426	30.44297050881	1
8	2838	33.404352730577	2
8	2864	33.404684730577	1
8	4650	37.006661523206	2
8	4685	37.006993523206	1
8	4794	37.323632299548	2
8	4853	37.323964299548	1
8	5818	40.003413493872	2
8	5848	40.003745493872	1
8	6117	40.321493707895	2
8	6152	40.321825707895	1
8	6676	40.80624036991	2
8	6716	40.80657236991	1
8	8108	44.006871040457	2
8	8148	44.007203040457	1
8	8477	48.402038210659	2
8	8505	48.402370210659	1
8	8851	55.002191802867	2
8	8879	55.002523802867	1
9	58	3.9	0
9	58	3.9	0
9	58	3.9	4
10	58	3.9	1
10	1760	29.006695277087	3
10	1779	29.007043277087	1
10	1855	29.327053617351	3
10	1874	29.327401617351	1
10	1938	29.332990065901	3
10	1953	29.333338065901	1
10	2041	29.806940161417	3
10	2060	29.807288161417	1
10	2168	29.812172073677	3
10	2184	29.812520073677	1
10	2323	30.440101290702	3
10	2346	30.440449290702	1
10	2368	30.442290501029	3
10	2387	30.442638501029	1
10	2499	30.449746501412	3
10	2514	30.450094501412	1
10	2805	33.404004632576	3
10	2820	33.404352632576	1
10	2842	33.404352829481	3
10	2867	33.404684829481	1
10	2911	33.406955199002	3
10	2957	33.407303199002	1
10	3004	33.410911025974	3
10	3050	33.411259025974	1
10	3160	33.414791021313	3
10	3215	33.415123021313	1
10	3311	33.416171945369	3
10	3340	33.416823945369	1
10	3348	33.416824024183	3
10	3393	33.417476024183	1
10	3404	33.417476102997	3
10	3495	33.418128102997	2
10	3504	33.418128181811	3
10	3618	33.418780181811	2
10	3625	33.418780260625	3
10	3722	33.419432260625	2
10	3749	33.419432686329	1
10	3770	33.419432881456	3
10	3844	33.420084881456	1
10	3860	33.420085076583	3
10	3910	33.420737076583	1
10	4099	34.000000134389	3
10	4115	34.000652134389	1
10	4167	34.001304481031	3
10	4195	34.001956481031	1
10	4243	35.000000226312	3
10	4261	35.000652226312	1
10	4310	35.001304568428	3
10	4337	35.001956568428	1
10	4901	37.325253265433	3
10	4924	37.325601265433	1
10	4949	37.32634964816	3
10	4964	37.32669764816	1
10	4994	37.32669781402	3
10	5019	37.32702981402	1
10	5086	37.328141537978	3
10	5101	37.328473537978	1
10	5184	37.330406209536	3
10	5220	37.330738209536	1
10	5372	37.33709349798	3
10	5400	37.33774549798	1
10	5404	37.337745506388	3
10	5429	37.338397506388	1
10	5551	38.001304502635	3
10	5579	38.001956502635	1
10	5581	38.00195651164	3
10	5610	38.00260851164	1
10	6353	40.328140642362	3
10	6395	40.328472642362	1
10	6417	40.328995183092	3
10	6445	40.329343183092	1
10	6497	40.429192562163	3
10	6524	40.429556562163	1
10	6839	40.810332629274	3
10	6868	40.810664629274	1
10	6940	40.811957858081	3
10	6964	40.812305858081	1
10	7001	40.812497988475	3
10	7016	40.812845988475	1
10	7159	40.815477349863	3
10	7174	40.815825349863	1
10	7216	40.817247858703	3
10	7235	40.817595858703	1
11	58	3.9	1
11	1895	29.329801503208	2
11	1910	29.330149503208	1
11	2125	29.811468555261	2
11	2140	29.811816555261	1
11	2452	30.444612389916	2
11	2467	30.444960389916	1
11	2890	33.40666002939	2
11	2924	33.40700802939	1
11	3282	33.415839787741	2
11	3297	33.416171787741	1
11	3345	33.416823945369	2
11	3392	33.417475945369	1
11	3409	33.417476120722	2
11	3502	33.418128120722	1
11	3521	33.418128296075	2
11	3629	33.418780296075	1
11	3646	33.418780471428	2
11	3732	33.419432471428	1
11	3746	33.419432646781	2
11	3829	33.420084646781	1
11	4119	34.000652134389	2
11	4148	34.001304134389	1
11	4265	35.000652226312	2
11	4290	35.001304226312	1
11	5127	37.328661744045	2
11	5142	37.329009744045	1
11	7100	40.814498865648	2
11	7115	40.814846865648	1
12	113	7.5	0
12	113	7.5	0
12	113	7.5	4
13	113	7.5	1
13	412	20.003312553609	3
13	437	20.003644553609	1
13	806	27.361487895788	3
13	829	27.361835895788	1
13	834	27.361835896965	3
13	861	27.362167896965	1
13	919	27.366643069633	3
13	945	27.366975069633	1
13	1004	27.367591080036	3
13	1030	27.368243080036	1
13	1041	27.368243302798	3
13	1086	27.368895302798	1
13	1100	27.36889552556	3
13	1155	27.36954752556	1
13	1169	27.369547748322	3
13	1224	27.370199748322	1
13	1238	27.370199971084	3
13	1293	27.370851971084	1
13	1307	27.370852193846	3
13	1362	27.371504193846	1
13	1376	27.371504416608	3
13	1432	27.372156416608	1
13	1446	27.37215663937	3
13	1502	27.37280863937	1
13	2076	29.807288338112	3
13	2100	29.807620338112	1
13	2402	30.44263863567	3
13	2427	30.44297063567	1
13	2845	33.404352910123	3
13	2874	33.404684910123	1
13	3003	33.410910946939	3
13	3045	33.411258946939	1
13	3065	33.41125914502	3
13	3089	33.41159114502	1
13	3159	33.414790942278	3
13	3213	33.415122942278	1
13	3420	33.41747621704	3
13	3511	33.41812821704	2
13	3538	33.418128412167	3
13	3638	33.418780412167	1
13	3665	33.418780607294	3
13	3740	33.419432607294	1
13	3764	33.419432802421	3
13	3836	33.420084802421	1
13	3856	33.420084997548	3
13	3908	33.420736997548	1
13	4130	34.000652357006	3
13	4160	34.001304357006	1
13	4162	34.001304358739	3
13	4186	34.001956358739	1
13	4269	35.000652373289	3
13	4293	35.001304373289	1
13	4302	35.001304429867	3
13	4328	35.001956429867	1
13	4665	37.006661733054	3
13	4695	37.006993733054	1
13	4814	37.323632509914	3
13	4863	37.323964509914	1
13	4900	37.325253215325	3
13	4919	37.325601215325	1
13	4997	37.326697872534	3
13	5023	37.327029872534	1
13	5128	37.328661802561	3
13	5143	37.329009802561	1
13	5183	37.330406159428	3
13	5218	37.330738159428	1
13	5369	37.337093447872	3
13	5395	37.337745447872	1
13	5516	38.000652390346	3
13	5545	38.001304390346	1
13	5547	38.001304391481	3
13	5571	38.001956391481	1
13	5830	40.003413699	3
13	5860	40.003745699	1
13	5932	40.006901862364	3
13	5963	40.007249862364	1
13	6134	40.321493912066	3
13	6164	40.321825912066	1
13	6186	40.324178625821	3
13	6213	40.324526625821	1
13	6285	40.327792332035	3
13	6319	40.328140332035	1
13	6354	40.328140646481	3
13	6397	40.328472646481	1
13	6418	40.328995196427	3
13	6450	40.329343196427	1
13	6496	40.429192559453	3
13	6519	40.429556559453	1
13	6696	40.806240573393	3
13	6726	40.806572573393	1
13	6744	40.807817725712	3
13	6763	40.808165725712	1
13	6793	40.809984343745	3
13	6808	40.810332343745	1
13	6837	40.810332600712	3
13	6866	40.810664600712	1
13	6944	40.811957926286	3
13	6984	40.812305926286	1
13	7060	40.813515586001	3
13	7075	40.813847586001	1
13	7271	40.818642607411	3
13	7287	40.818974607411	1
13	7414	40.821121340809	3
13	7440	40.821773340809	1
13	7449	40.821773404975	3
13	7475	40.822425404975	1
13	7579	41.001304392883	3
13	7604	41.001956392883	1
13	7613	41.001956493332	3
13	7638	41.002608493332	1
13	7731	42.000652387	3
13	7761	42.001304387	1
13	7763	42.001304394259	3
13	7789	42.001956394259	1
13	7803	42.001956678579	3
13	7831	42.002608678579	1
13	8087	44.006523181662	3
13	8115	44.006871181662	1
13	8127	44.006871250165	3
13	8158	44.007203250165	1
13	8480	48.402038421782	3
13	8511	48.402370421782	1
13	8854	55.0021920088	3
13	8885	55.0025240088	1
14	113	7.5	1
14	884	27.366294760797	2
14	899	27.366642760797	1
14	968	27.367258634512	2
14	983	27.367590634512	1
14	1035	27.368243080036	2
14	1077	27.368895080036	1
14	1093	27.368895302798	2
14	1146	27.369547302798	1
14	1162	27.36954752556	2
14	1215	27.37019952556	1
14	1231	27.370199748322	2
14	1284	27.370851748322	1
14	1300	27.370851971084	2
14	1353	27.371503971084	1
14	1369	27.371504193846	2
14	1423	27.372156193846	1
14	1439	27.372156416608	2
14	1493	27.372808416608	1
14	1508	27.37280863937	2
14	1546	27.37346063937	1
14	3176	33.414862110197	2
14	3232	33.415210110197	1
14	4948	37.326349589644	2
14	4963	37.326697589644	1
14	5085	37.328141479462	2
14	5100	37.328473479462	1
14	5399	37.337745447872	2
14	5428	37.338397447872	1
14	5575	38.001956391481	2
14	5607	38.002608391481	1
14	6303	40.327879815189	2
14	6371	40.328227815189	1
14	6883	40.811204879046	2
14	6898	40.811552879046	1
15	119	7.6	0
15	119	7.6	0
15	119	7.6	4
16	119	7.6	1
16	1896	29.329801673145	3
16	1911	29.330149673145	1
16	2126	29.811468724322	3
16	2141	29.811816724322	1
16	2212	29.81420723902	3
16	2231	29.81455523902	1
16	2453	30.444612557778	3
16	2468	30.444960557778	1
16	2545	30.453985470812	3
16	2564	30.454333470812	1
16	2806	33.404004643311	3
16	2825	33.404352643311	1
16	2893	33.406660197679	3
16	2935	33.407008197679	1
16	2984	33.410697777653	3
16	3022	33.411045777653	1
16	3285	33.41583995603	3
16	3312	33.41617195603	1
16	3314	33.416171956104	3
16	3346	33.416823956104	1
16	3350	33.416824034918	3
16	3400	33.417476034918	2
16	3405	33.417476113658	1
16	3406	33.417476113732	3
16	3500	33.418128113732	2
16	3505	33.418128192546	3
16	3623	33.418780192546	2
16	3626	33.41878027136	3
16	3726	33.41943227136	2
16	3743	33.419432639717	1
16	3766	33.41943281507	3
16	3838	33.42008481507	1
16	4098	34.000000035268	3
16	4113	34.000652035268	1
16	4126	34.000652303873	3
16	4153	34.001304303873	1
16	4240	35.000000059886	3
16	4255	35.000652059886	1
16	4271	35.000652397057	3
16	4295	35.001304397057	1
16	4386	36.000000149701	3
16	4402	36.000652149701	1
16	4430	36.10093182008	3
16	4449	36.10129582008	1
16	4625	37.006313588694	3
16	4656	37.006661588694	1
16	4661	37.006661588774	3
16	4686	37.006993588774	1
16	4774	37.323284392766	3
16	4806	37.323632392766	1
16	4811	37.323632392824	3
16	4859	37.323964392824	1
16	4950	37.326349707182	3
16	4969	37.326697707182	1
16	5087	37.328141597	3
16	5103	37.328473597	1
16	5131	37.328661911691	3
16	5158	37.329009911691	1
16	5268	37.335457130246	3
16	5293	37.335789130246	1
16	5333	37.336441330334	3
16	5362	37.337093330334	1
16	5405	37.33774556541	3
16	5431	37.33839756541	1
16	5513	38.000652337619	3
16	5540	38.001304337619	1
16	5576	38.001956445343	3
16	5608	38.002608445343	1
16	6288	40.327792487709	3
16	6338	40.328140487709	2
16	6343	40.328140498751	3
16	6391	40.328472498751	1
16	6494	40.429192417467	3
16	6509	40.429556417467	1
16	6796	40.809984484808	3
16	6827	40.810332484808	1
16	6832	40.810332492581	3
16	6857	40.810664492581	1
16	6888	40.811205084386	3
16	6919	40.811553084386	1
16	7002	40.812498022974	3
16	7021	40.812846022974	1
16	7063	40.813515727064	3
16	7084	40.813847727064	1
16	7104	40.814499002783	3
16	7131	40.814847002783	1
16	7163	40.81547748448	3
16	7194	40.81582548448	1
16	7219	40.817247985869	3
16	7250	40.817595985869	1
16	7456	40.821773546038	3
16	7484	40.822425546038	1
16	7620	41.001956615587	3
16	7647	41.002608615587	1
16	7808	42.001956702953	3
16	7835	42.002608702953	1
17	119	7.6	1
17	1937	29.332989895964	2
17	1952	29.333337895964	1
17	2167	29.812171904616	2
17	2183	29.812519904616	1
17	2498	30.44974633355	2
17	2513	30.45009433355	1
17	2909	33.406955030713	2
17	2955	33.407303030713	1
17	4898	37.325253097787	2
17	4913	37.325601097787	1
17	5181	37.33040604189	2
17	5215	37.33073804189	1
17	5366	37.337093330334	2
17	5392	37.337745330334	1
17	5544	38.001304337619	2
17	5570	38.001956337619	1
17	6414	40.32899503564	2
17	6434	40.32934303564	1
17	6937	40.811957720946	2
17	6953	40.812305720946	1
18	182	11.2	0
18	182	11.2	0
18	182	11.2	4
19	182	11.2	1
19	886	27.366294915215	3
19	905	27.366642915215	1
19	970	27.36725878893	3
19	986	27.36759078893	1
19	1040	27.368243234454	3
19	1081	27.368895234454	1
19	1099	27.368895457216	3
19	1150	27.369547457216	1
19	1168	27.369547679978	3
19	1219	27.370199679978	1
19	1237	27.37019990274	3
19	1288	27.37085190274	1
19	1306	27.370852125502	3
19	1357	27.371504125502	1
19	1375	27.371504348264	3
19	1427	27.372156348264	1
19	1445	27.372156571026	3
19	1497	27.372808571026	1
19	1513	27.372808793788	3
19	1549	27.373460793788	1
19	2079	29.807288435012	3
19	2104	29.807620435012	1
19	2407	30.442638725314	3
19	2436	30.442970725314	1
19	3005	33.410911045748	3
19	3055	33.411259045748	1
19	3161	33.414791041087	3
19	3220	33.415123041087	2
19	3238	33.415210209469	1
19	3430	33.417476315849	3
19	3524	33.418128315849	2
19	3549	33.418128510976	3
19	3650	33.418780510976	1
19	3676	33.418780706103	3
19	3750	33.419432706103	1
19	3772	33.41943290123	3
19	3846	33.42008490123	1
19	3861	33.420085096357	3
19	3912	33.420737096357	1
19	4165	34.001304459563	3
19	4190	34.001956459563	1
19	4306	35.001304472937	3
19	4330	35.001956472937	1
19	4951	37.326349731089	3
19	4974	37.326697731089	1
19	5088	37.328141620907	3
19	5108	37.328473620907	1
19	5129	37.328661826976	3
19	5148	37.329009826976	1
19	5407	37.337745589317	3
19	5433	37.338397589317	1
19	5554	38.00130453104	3
19	5584	38.00195653104	1
19	5586	38.00195653993	3
19	5612	38.00260853993	1
19	6287	40.327792487136	3
19	6329	40.328140487136	2
19	6377	40.328227974534	1
19	6415	40.328995047255	3
19	6435	40.329343047255	1
19	6794	40.809984440645	3
19	6813	40.810332440645	1
19	6886	40.811205039113	3
19	6909	40.811553039113	1
19	6938	40.811957772882	3
19	6954	40.812305772882	1
19	7005	40.812498074907	3
19	7036	40.812846074907	1
19	7061	40.813515682901	3
19	7077	40.813847682901	1
19	7106	40.814499054277	3
19	7141	40.814847054277	1
19	7452	40.821773501875	3
19	7477	40.822425501875	1
19	7616	41.00195655392	3
19	7640	41.00260855392	1
19	7771	42.001304554067	3
19	7800	42.001956554067	1
19	7802	42.001956556852	3
19	7826	42.002608556852	1
20	182	11.2	1
20	913	27.366642915215	2
20	944	27.366974915215	1
20	3063	33.411259045748	2
20	3088	33.411591045748	1
20	4982	37.326697731089	2
20	5016	37.327029731089	1
20	6337	40.328140487136	2
20	6390	40.328472487136	1
20	6493	40.429192399944	2
20	6508	40.429556399944	1
20	6821	40.810332440645	2
20	6856	40.810664440645	1
21	189	11.4	0
21	189	11.4	0
21	189	11.4	4
22	189	11.4	1
22	1939	29.332990072756	3
22	1958	29.333338072756	1
22	2169	29.812172081414	3
22	2189	29.812520081414	1
22	2254	29.814991052405	3
22	2273	29.815339052405	1
22	2500	30.449746510289	3
22	2519	30.450094510289	1
22	2588	30.45503539245	3
22	2607	30.45538339245	1
22	2912	33.406955205349	3
22	2962	33.407303205349	1
22	3115	33.411637320068	3
22	3134	33.411985320068	1
22	4101	34.00000020154	3
22	4123	34.00065220154	1
22	4241	35.000000112608	3
22	4257	35.000652112608	1
22	4385	36.000000022598	3
22	4400	36.000652022598	1
22	4429	36.100931676778	3
22	4444	36.101295676778	1
22	4530	37.003684663722	3
22	4545	37.004032663722	1
22	4578	37.005115611547	3
22	4601	37.005463611547	1
22	4662	37.00666163101	3
22	4688	37.00699363101	1
22	4726	37.322842269786	3
22	4745	37.323190269786	1
22	4800	37.32363238032	3
22	4854	37.32396438032	2
22	4882	37.324214501453	1
22	4902	37.325253271777	3
22	4929	37.325601271777	1
22	5185	37.33040621588	3
22	5222	37.33073821588	1
22	5295	37.335789156344	3
22	5321	37.336441156344	1
22	5373	37.337093504324	3
22	5402	37.337745504324	1
22	5483	38.000000162385	3
22	5499	38.000652162385	1
22	5552	38.001304512853	3
22	5582	38.001956512853	1
22	5589	38.001956619442	3
22	5619	38.002608619442	1
22	5827	40.003413660591	3
22	5853	40.003745660591	1
22	5930	40.006901822671	3
22	5953	40.007249822671	1
22	6132	40.321493900637	3
22	6162	40.321825900637	1
22	6185	40.324178612642	3
22	6208	40.324526612642	1
22	6304	40.327879834421	3
22	6372	40.328227834421	2
22	6399	40.328472661469	1
22	6419	40.328995210546	3
22	6455	40.329343210546	1
22	6498	40.429192565302	3
22	6529	40.429556565302	1
22	6746	40.80781775759	3
22	6773	40.80816575759	1
22	6835	40.810332569833	3
22	6859	40.810664569833	1
22	6884	40.811204911334	3
22	6899	40.811552911334	1
22	6941	40.811957894297	3
22	6969	40.812305894297	1
22	7273	40.818642639289	3
22	7294	40.818974639289	1
22	7417	40.821121372687	3
22	7444	40.821773372687	1
22	7582	41.001304443056	3
22	7608	41.001956443056	1
22	7768	42.001304536062	3
22	7793	42.001956536062	1
23	189	11.4	1
23	2210	29.814207062222	2
23	2225	29.814555062222	1
23	2543	30.453985294073	2
23	2558	30.454333294073	1
23	2982	33.410697603017	2
23	3016	33.411045603017	1
23	4621	37.006313415402	2
23	4636	37.006661415402	1
23	4770	37.323284218776	2
23	4785	37.323632218776	1
23	5264	37.335456956256	2
23	5280	37.335788956256	1
23	5325	37.336441156344	2
23	5355	37.337093156344	1
23	5503	38.000652162385	2
23	5533	38.001304162385	1
23	6284	40.327792312803	2
23	6318	40.328140312803	1
23	6792	40.809984311457	2
23	6807	40.810332311457	1
23	7059	40.813515553713	2
23	7074	40.813847553713	1
23	7448	40.821773372687	2
23	7474	40.822425372687	1
23	7612	41.001956443056	2
23	7637	41.002608443056	1
23	7797	42.001956536062	2
23	7825	42.002608536062	1
24	257	14.9	0
24	257	14.9	0
24	257	14.9	4
25	257	14.9	1
25	921	27.366643098014	3
25	950	27.366975098014	1
25	3067	33.411259154088	3
25	3091	33.411591154088	1
25	3180	33.414862313983	3
25	3240	33.415210313983	1
25	3937	33.4220385995	3
25	3956	33.4223865995	1
25	4309	35.001304563629	3
25	4335	35.001956563629	1
25	4996	37.326697834545	3
25	5021	37.327029834545	1
25	5132	37.328661929983	3
25	5163	37.329009929983	1
25	6351	40.328140620996	3
25	6393	40.328472620996	1
25	6416	40.328995162486	3
25	6440	40.329343162486	1
25	6495	40.429192535055	3
25	6514	40.429556535055	1
25	6836	40.810332580028	3
25	6864	40.810664580028	1
25	6939	40.811957808396	3
25	6959	40.812305808396	1
25	7101	40.814498918599	3
25	7116	40.814846918599	1
25	7162	40.815477402754	3
25	7189	40.815825402754	1
25	7218	40.817247898637	3
25	7245	40.817595898637	1
25	7805	42.00195669666	3
25	7833	42.00260869666	1
26	257	14.9	1
26	3479	33.417897180124	2
26	3598	33.418245180124	1
26	7000	40.812497935524	2
26	7015	40.812845935524	1
27	266	15.1	0
27	266	15.1	0
[...]
239	9218	53.8	0
239	9218	53.9	0
239	9218	54	0
239	9218	54.1	0
239	9218	54.2	0
239	9218	54.3	0
239	9218	54.4	0
239	9218	54.5	0
239	9218	54.6	0
239	9218	54.7	0
239	9218	54.8	0
239	9218	54.9	0
239	9218	55	0
239	9218	55.1	0
239	9218	55.2	0
239	9218	55.3	0
239	9218	55.4	0
239	9218	55.5	0
239	9218	55.6	0
239	9218	55.7	0
239	9218	55.8	0
239	9218	55.9	0
239	9218	56	0
239	9218	56.1	0
239	9218	56.2	0
239	9218	56.3	0
239	9218	56.4	0
239	9218	56.5	0
239	9218	56.6	0
239	9218	56.7	0
239	9218	56.8	0
239	9218	56.9	0
239	9218	57	0
239	9218	57.1	0
239	9218	57.2	0
239	9218	57.3	0
239	9218	57.4	0
239	9218	57.5	0
239	9218	57.6	0
239	9218	57.7	0
239	9218	57.8	0
239	9218	57.9	0
239	9218	58	0
239	9218	58.1	0
239	9218	58.2	0
239	9218	58.3	0
239	9218	58.4	0
239	9218	58.5	0
239	9218	58.6	0
239	9218	58.7	0
239	9218	58.8	0
239	9218	58.9	0
239	9218	59	0
239	9218	59.1	0
239	9218	59.2	0
239	9218	59.3	0
239	9218	59.4	0
239	9218	59.5	0
239	9218	59.6	0
239	9218	59.7	0
239	9218	59.8	0
239	9218	59.9	0
239	9218	60	0
239	9218	60.1	0
239	9218	60.2	0
239	9218	60.3	0
239	9218	60.4	0
239	9218	60.5	0
240	9218	0.1	0
240	9218	0.2	0
240	9218	0.3	0
240	9218	0.4	0
240	9218	0.5	0
240	9218	0.6	0
240	9218	0.7	0
240	9218	0.8	0
240	9218	0.9	0
240	9218	1	0
240	9218	1.1	0
240	9218	1.2	0
240	9218	1.3	0
240	9218	1.4	0
240	9218	1.5	0
240	9218	1.6	0
240	9218	1.7	0
240	9218	1.8	0
240	9218	1.9	0
240	9218	2	0
240	9218	2.1	0
240	9218	2.2	0
240	9218	2.3	0
240	9218	2.4	0
240	9218	2.5	0
240	9218	2.6	0
240	9218	2.7	0
240	9218	2.8	0
240	9218	2.9	0
240	9218	3	0
240	9218	3.1	0
240	9218	3.2	0
240	9218	3.3	0
240	9218	3.4	0
240	9218	3.5	0
240	9218	3.6	0
240	9218	3.7	0
240	9218	3.8	0
240	9218	3.9	0
240	9218	4	0
240	9218	4.1	0
240	9218	4.2	0
240	9218	4.3	0
240	9218	4.4	0
240	9218	4.5	0
240	9218	4.6	0
240	9218	4.7	0
240	9218	4.8	0
240	9218	4.9	0
240	9218	5	0
240	9218	5.1	0
240	9218	5.2	0
240	9218	5.3	0
240	9218	5.4	0
240	9218	5.5	0
240	9218	5.6	0
240	9218	5.7	0
240	9218	5.8	0
240	9218	5.9	0
240	9218	6	0
240	9218	6.1	0
240	9218	6.2	0
240	9218	6.3	0
240	9218	6.4	0
240	9218	6.5	0
240	9218	6.6	0
240	9218	6.7	0
240	9218	6.8	0
240	9218	6.9	0
240	9218	7	0
240	9218	7.1	0
240	9218	7.2	0
240	9218	7.3	0
240	9218	7.4	0
240	9218	7.5	0
240	9218	7.6	0
240	9218	7.7	0
240	9218	7.8	0
240	9218	7.9	0
240	9218	8	0
240	9218	8.1	0
240	9218	8.2	0
240	9218	8.3	0
240	9218	8.4	0
240	9218	8.5	0
240	9218	8.6	0
240	9218	8.7	0
240	9218	8.8	0
240	9218	8.9	0
240	9218	9	0
240	9218	9.1	0
240	9218	9.2	0
240	9218	9.3	0
240	9218	9.4	0
240	9218	9.5	0
240	9218	9.6	0
240	9218	9.7	0
240	9218	9.8	0
240	9218	9.9	0
240	9218	10	0
240	9218	10.1	0
240	9218	10.2	0
240	9218	10.3	0
240	9218	10.4	0
240	9218	10.5	0
240	9218	10.6	0
240	9218	10.7	0
240	9218	10.8	0
240	9218	10.9	0
240	9218	11	0
240	9218	11.1	0
240	9218	11.2	0
240	9218	11.3	0
240	9218	11.4	0
240	9218	11.5	0
240	9218	11.6	0
240	9218	11.7	0
240	9218	11.8	0
240	9218	11.9	0
240	9218	12	0
240	9218	12.1	0
240	9218	12.2	0
240	9218	12.3	0
240	9218	12.4	0
240	9218	12.5	0
240	9218	12.6	0
240	9218	12.7	0
240	9218	12.8	0
240	9218	12.9	0
240	9218	13	0
240	9218	13.1	0
240	9218	13.2	0
240	9218	13.3	0
240	9218	13.4	0
240	9218	13.5	0
240	9218	13.6	0
240	9218	13.7	0
240	9218	13.8	0
240	9218	13.9	0
240	9218	14	0
240	9218	14.1	0
240	9218	14.2	0
240	9218	14.3	0
240	9218	14.4	0
240	9218	14.5	0
240	9218	14.6	0
240	9218	14.7	0
240	9218	14.8	0
240	9218	14.9	0
240	9218	15	0
240	9218	15.1	0
240	9218	15.2	0
240	9218	15.3	0
240	9218	15.4	0
240	9218	15.5	0
240	9218	15.6	0
240	9218	15.7	0
240	9218	15.8	0
240	9218	15.9	0
240	9218	16	0
240	9218	16.1	0
240	9218	16.2	0
240	9218	16.3	0
240	9218	16.4	0
240	9218	16.5	0
240	9218	16.6	0
240	9218	16.7	0
240	9218	16.8	0
240	9218	16.9	0
240	9218	17	0
240	9218	17.1	0
240	9218	17.2	0
240	9218	17.3	0
240	9218	17.4	0
240	9218	17.5	0
240	9218	17.6	0
240	9218	17.7	0
240	9218	17.8	0
240	9218	17.9	0
240	9218	18	0
240	9218	18.1	0
240	9218	18.2	0
240	9218	18.3	0
240	9218	18.4	0
240	9218	18.5	0
240	9218	18.6	0
240	9218	18.7	0
240	9218	18.8	0
240	9218	18.9	0
240	9218	19	0
240	9218	19.1	0
240	9218	19.2	0
240	9218	19.3	0
240	9218	19.4	0
240	9218	19.5	0
240	9218	19.6	0
240	9218	19.7	0
240	9218	19.8	0
240	9218	19.9	0
240	9218	20	0
240	9218	20.1	0
240	9218	20.2	0
240	9218	20.3	0
240	9218	20.4	0
240	9218	20.5	0
240	9218	20.6	0
240	9218	20.7	0
240	9218	20.8	0
240	9218	20.9	0
240	9218	21	0
240	9218	21.1	0
240	9218	21.2	0
240	9218	21.3	0
240	9218	21.4	0
240	9218	21.5	0
240	9218	21.6	0
240	9218	21.7	0
240	9218	21.8	0
240	9218	21.9	0
240	9218	22	0
240	9218	22.1	0
240	9218	22.2	0
240	9218	22.3	0
240	9218	22.4	0
240	9218	22.5	0
240	9218	22.6	0
240	9218	22.7	0
240	9218	22.8	0
240	9218	22.9	0
240	9218	23	0
240	9218	23.1	0
240	9218	23.2	0
240	9218	23.3	0
240	9218	23.4	0
240	9218	23.5	0
240	9218	23.6	0
240	9218	23.7	0
240	9218	23.8	0
240	9218	23.9	0
240	9218	24	0
240	9218	24.1	0
240	9218	24.2	0
240	9218	24.3	0
240	9218	24.4	0
240	9218	24.5	0
240	9218	24.6	0
240	9218	24.7	0
240	9218	24.8	0
240	9218	24.9	0
240	9218	25	0
240	9218	25.1	0
240	9218	25.2	0
240	9218	25.3	0
240	9218	25.4	0
240	9218	25.5	0
240	9218	25.6	0
240	9218	25.7	0
240	9218	25.8	0
240	9218	25.9	0
240	9218	26	0
240	9218	26.1	0
240	9218	26.2	0
240	9218	26.3	0
240	9218	26.4	0
240	9218	26.5	0
240	9218	26.6	0
240	9218	26.7	0
240	9218	26.8	0
240	9218	26.9	0
240	9218	27	0
240	9218	27.1	0
240	9218	27.2	0
240	9218	27.3	0
240	9218	27.4	0
240	9218	27.5	0
240	9218	27.6	0
240	9218	27.7	0
240	9218	27.8	0
240	9218	27.9	0
240	9218	28	0
240	9218	28.1	0
240	9218	28.2	0
240	9218	28.3	0
240	9218	28.4	0
240	9218	28.5	0
240	9218	28.6	0
240	9218	28.7	0
240	9218	28.8	0
240	9218	28.9	0
240	9218	29	0
240	9218	29.1	0
240	9218	29.2	0
240	9218	29.3	0
240	9218	29.4	0
240	9218	29.5	0
240	9218	29.6	0
240	9218	29.7	0
240	9218	29.8	0
240	9218	29.9	0
240	9218	30	0
240	9218	30.1	0
240	9218	30.2	0
240	9218	30.3	0
240	9218	30.4	0
240	9218	30.5	0
240	9218	30.6	0
240	9218	30.7	0
240	9218	30.8	0
240	9218	30.9	0
240	9218	31	0
240	9218	31.1	0
240	9218	31.2	0
240	9218	31.3	0
240	9218	31.4	0
240	9218	31.5	0
240	9218	31.6	0
240	9218	31.7	0
240	9218	31.8	0
240	9218	31.9	0
240	9218	32	0
240	9218	32.1	0
240	9218	32.2	0
240	9218	32.3	0
240	9218	32.4	0
240	9218	32.5	0
240	9218	32.6	0
240	9218	32.7	0
240	9218	32.8	0
240	9218	32.9	0
240	9218	33	0
240	9218	33.1	0
240	9218	33.2	0
240	9218	33.3	0
240	9218	33.4	0
240	9218	33.5	0
240	9218	33.6	0
240	9218	33.7	0
240	9218	33.8	0
240	9218	33.9	0
240	9218	34	0
240	9218	34.1	0
240	9218	34.2	0
240	9218	34.3	0
240	9218	34.4	0
240	9218	34.5	0
240	9218	34.6	0
240	9218	34.7	0
240	9218	34.8	0
240	9218	34.9	0
240	9218	35	0
240	9218	35.1	0
240	9218	35.2	0
240	9218	35.3	0
240	9218	35.4	0
240	9218	35.5	0
240	9218	35.6	0
240	9218	35.7	0
240	9218	35.8	0
240	9218	35.9	0
240	9218	36	0
240	9218	36.1	0
240	9218	36.2	0
240	9218	36.3	0
240	9218	36.4	0
240	9218	36.5	0
240	9218	36.6	0
240	9218	36.7	0
240	9218	36.8	0
240	9218	36.9	0
240	9218	37	0
240	9218	37.1	0
240	9218	37.2	0
240	9218	37.3	0
240	9218	37.4	0
240	9218	37.5	0
240	9218	37.6	0
240	9218	37.7	0
240	9218	37.8	0
240	9218	37.9	0
240	9218	38	0
240	9218	38.1	0
240	9218	38.2	0
240	9218	38.3	0
240	9218	38.4	0
240	9218	38.5	0
240	9218	38.6	0
240	9218	38.7	0
240	9218	38.8	0
240	9218	38.9	0
240	9218	39	0
240	9218	39.1	0
240	9218	39.2	0
240	9218	39.3	0
240	9218	39.4	0
240	9218	39.5	0
240	9218	39.6	0
240	9218	39.7	0
240	9218	39.8	0
240	9218	39.9	0
240	9218	40	0
240	9218	40.1	0
240	9218	40.2	0
240	9218	40.3	0
240	9218	40.4	0
240	9218	40.5	0
240	9218	40.6	0
240	9218	40.7	0
240	9218	40.8	0
240	9218	40.9	0
240	9218	41	0
240	9218	41.1	0
240	9218	41.2	0
240	9218	41.3	0
240	9218	41.4	0
240	9218	41.5	0
240	9218	41.6	0
240	9218	41.7	0
240	9218	41.8	0
240	9218	41.9	0
240	9218	42	0
240	9218	42.1	0
240	9218	42.2	0
240	9218	42.3	0
240	9218	42.4	0
240	9218	42.5	0
240	9218	42.6	0
240	9218	42.7	0
240	9218	42.8	0
240	9218	42.9	0
240	9218	43	0
240	9218	43.1	0
240	9218	43.2	0
240	9218	43.3	0
240	9218	43.4	0
240	9218	43.5	0
240	9218	43.6	0
240	9218	43.7	0
240	9218	43.8	0
240	9218	43.9	0
240	9218	44	0
240	9218	44.1	0
240	9218	44.2	0
240	9218	44.3	0
240	9218	44.4	0
240	9218	44.5	0
240	9218	44.6	0
240	9218	44.7	0
240	9218	44.8	0
240	9218	44.9	0
240	9218	45	0
240	9218	45.1	0
240	9218	45.2	0
240	9218	45.3	0
240	9218	45.4	0
240	9218	45.5	0
240	9218	45.6	0
240	9218	45.7	0
240	9218	45.8	0
240	9218	45.9	0
240	9218	46	0
240	9218	46.1	0
240	9218	46.2	0
240	9218	46.3	0
240	9218	46.4	0
240	9218	46.5	0
240	9218	46.6	0
240	9218	46.7	0
240	9218	46.8	0
240	9218	46.9	0
240	9218	47	0
240	9218	47.1	0
240	9218	47.2	0
240	9218	47.3	0
240	9218	47.4	0
240	9218	47.5	0
240	9218	47.6	0
240	9218	47.7	0
240	9218	47.8	0
240	9218	47.9	0
240	9218	48	0
240	9218	48.1	0
240	9218	48.2	0
240	9218	48.3	0
240	9218	48.4	0
240	9218	48.5	0
240	9218	48.6	0
240	9218	48.7	0
240	9218	48.8	0
240	9218	48.9	0
240	9218	49	0
240	9218	49.1	0
240	9218	49.2	0
240	9218	49.3	0
240	9218	49.4	0
240	9218	49.5	0
240	9218	49.6	0
240	9218	49.7	0
240	9218	49.8	0
240	9218	49.9	0
240	9218	50	0
240	9218	50.1	0
240	9218	50.2	0
240	9218	50.3	0
240	9218	50.4	0
240	9218	50.5	0
240	9218	50.6	0
240	9218	50.7	0
240	9218	50.8	0
240	9218	50.9	0
240	9218	51	0
240	9218	51.1	0
240	9218	51.2	0
240	9218	51.3	0
240	9218	51.4	0
240	9218	51.5	0
240	9218	51.6	0
240	9218	51.7	0
240	9218	51.8	0
240	9218	51.9	0
240	9218	52	0
240	9218	52.1	0
240	9218	52.2	0
240	9218	52.3	0
240	9218	52.4	0
240	9218	52.5	0
240	9218	52.6	0
240	9218	52.7	0
240	9218	52.8	0
240	9218	52.9	0
240	9218	53	0
240	9218	53.1	0
240	9218	53.2	0
240	9218	53.3	0
240	9218	53.4	0
240	9218	53.5	0
240	9218	53.6	0
240	9218	53.7	0
240	9218	53.8	0
240	9218	53.9	0
240	9218	54	0
240	9218	54.1	0
240	9218	54.2	0
240	9218	54.3	0
240	9218	54.4	0
240	9218	54.5	0
240	9218	54.6	0
240	9218	54.7	0
240	9218	54.8	0
240	9218	54.9	0
240	9218	55	0
240	9218	55.1	0
240	9218	55.2	0
240	9218	55.3	0
240	9218	55.4	0
240	9218	55.5	0
240	9218	55.6	0
240	9218	55.7	0
240	9218	55.8	0
240	9218	55.9	0
240	9218	56	0
240	9218	56.1	0
240	9218	56.2	0
240	9218	56.3	0
240	9218	56.4	0
240	9218	56.5	0
240	9218	56.6	0
240	9218	56.7	0
240	9218	56.8	0
240	9218	56.9	0
240	9218	57	0
240	9218	57.1	0
240	9218	57.2	0
240	9218	57.3	0
240	9218	57.4	0
240	9218	57.5	0
240	9218	57.6	0
240	9218	57.7	0
240	9218	57.8	0
240	9218	57.9	0
240	9218	58	0
240	9218	58.1	0
240	9218	58.2	0
240	9218	58.3	0
240	9218	58.4	0
240	9218	58.5	0
240	9218	58.6	0
240	9218	58.7	0
240	9218	58.8	0
240	9218	58.9	0
240	9218	59	0
240	9218	59.1	0
240	9218	59.2	0
240	9218	59.3	0
240	9218	59.4	0
240	9218	59.5	0
240	9218	59.6	0
240	9218	59.7	0
240	9218	59.8	0
240	9218	59.9	0
240	9218	60	0
240	9218	60.1	0
240	9218	60.2	0
240	9218	60.3	0
240	9218	60.4	0
240	9218	60.5	0
241	9218	0.1	0
241	9218	0.2	0
241	9218	0.3	0
241	9218	0.4	0
241	9218	0.5	0
241	9218	0.6	0
241	9218	0.7	0
241	9218	0.8	0
241	9218	0.9	0
241	9218	1	0
241	9218	1.1	0
241	9218	1.2	0
241	9218	1.3	0
241	9218	1.4	0
241	9218	1.5	0
241	9218	1.6	0
241	9218	1.7	0
241	9218	1.8	0
241	9218	1.9	0
241	9218	2	0
241	9218	2.1	0
241	9218	2.2	0
241	9218	2.3	0
241	9218	2.4	0
241	9218	2.5	0
241	9218	2.6	0
241	9218	2.7	0
241	9218	2.8	0
241	9218	2.9	0
241	9218	3	0
241	9218	3.1	0
241	9218	3.2	0
241	9218	3.3	0
241	9218	3.4	0
241	9218	3.5	0
241	9218	3.6	0
241	9218	3.7	0
241	9218	3.8	0
241	9218	3.9	0
241	9218	4	0
241	9218	4.1	0
241	9218	4.2	0
241	9218	4.3	0
241	9218	4.4	0
241	9218	4.5	0
241	9218	4.6	0
241	9218	4.7	0
241	9218	4.8	0
241	9218	4.9	0
241	9218	5	0
241	9218	5.1	0
241	9218	5.2	0
241	9218	5.3	0
241	9218	5.4	0
241	9218	5.5	0
241	9218	5.6	0
241	9218	5.7	0
241	9218	5.8	0
241	9218	5.9	0
241	9218	6	0
241	9218	6.1	0
241	9218	6.2	0
241	9218	6.3	0
241	9218	6.4	0
241	9218	6.5	0
241	9218	6.6	0
241	9218	6.7	0
241	9218	6.8	0
241	9218	6.9	0
241	9218	7	0
241	9218	7.1	0
241	9218	7.2	0
241	9218	7.3	0
241	9218	7.4	0
241	9218	7.5	0
241	9218	7.6	0
241	9218	7.7	0
241	9218	7.8	0
241	9218	7.9	0
241	9218	8	0
241	9218	8.1	0
241	9218	8.2	0
241	9218	8.3	0
241	9218	8.4	0
241	9218	8.5	0
241	9218	8.6	0
241	9218	8.7	0
241	9218	8.8	0
241	9218	8.9	0
241	9218	9	0
241	9218	9.1	0
241	9218	9.2	0
241	9218	9.3	0
241	9218	9.4	0
241	9218	9.5	0
241	9218	9.6	0
241	9218	9.7	0
241	9218	9.8	0
241	9218	9.9	0
241	9218	10	0
241	9218	10.1	0
241	9218	10.2	0
241	9218	10.3	0
241	9218	10.4	0
241	9218	10.5	0
241	9218	10.6	0
241	9218	10.7	0
241	9218	10.8	0
241	9218	10.9	0
241	9218	11	0
241	9218	11.1	0
241	9218	11.2	0
241	9218	11.3	0
241	9218	11.4	0
241	9218	11.5	0
241	9218	11.6	0
241	9218	11.7	0
241	9218	11.8	0
241	9218	11.9	0
241	9218	12	0
241	9218	12.1	0
241	9218	12.2	0
241	9218	12.3	0
241	9218	12.4	0
241	9218	12.5	0
241	9218	12.6	0
241	9218	12.7	0
241	9218	12.8	0
241	9218	12.9	0
241	9218	13	0
241	9218	13.1	0
241	9218	13.2	0
241	9218	13.3	0
241	9218	13.4	0
241	9218	13.5	0
241	9218	13.6	0
241	9218	13.7	0
241	9218	13.8	0
241	9218	13.9	0
241	9218	14	0
241	9218	14.1	0
241	9218	14.2	0
241	9218	14.3	0
241	9218	14.4	0
241	9218	14.5	0
241	9218	14.6	0
241	9218	14.7	0
241	9218	14.8	0
241	9218	14.9	0
241	9218	15	0
241	9218	15.1	0
241	9218	15.2	0
241	9218	15.3	0
241	9218	15.4	0
241	9218	15.5	0
241	9218	15.6	0
241	9218	15.7	0
241	9218	15.8	0
241	9218	15.9	0
241	9218	16	0
241	9218	16.1	0
241	9218	16.2	0
241	9218	16.3	0
241	9218	16.4	0
241	9218	16.5	0
241	9218	16.6	0
241	9218	16.7	0
241	9218	16.8	0
241	9218	16.9	0
241	9218	17	0
241	9218	17.1	0
241	9218	17.2	0
241	9218	17.3	0
241	9218	17.4	0
241	9218	17.5	0
241	9218	17.6	0
241	9218	17.7	0
241	9218	17.8	0
241	9218	17.9	0
241	9218	18	0
241	9218	18.1	0
241	9218	18.2	0
241	9218	18.3	0
241	9218	18.4	0
241	9218	18.5	0
241	9218	18.6	0
241	9218	18.7	0
241	9218	18.8	0
241	9218	18.9	0
241	9218	19	0
241	9218	19.1	0
241	9218	19.2	0
241	9218	19.3	0
241	9218	19.4	0
241	9218	19.5	0
241	9218	19.6	0
241	9218	19.7	0
241	9218	19.8	0
241	9218	19.9	0
241	9218	20	0
241	9218	20.1	0
241	9218	20.2	0
241	9218	20.3	0
241	9218	20.4	0
241	9218	20.5	0
241	9218	20.6	0
241	9218	20.7	0
241	9218	20.8	0
241	9218	20.9	0
241	9218	21	0
241	9218	21.1	0
241	9218	21.2	0
241	9218	21.3	0
241	9218	21.4	0
241	9218	21.5	0
241	9218	21.6	0
241	9218	21.7	0
241	9218	21.8	0
241	9218	21.9	0
241	9218	22	0
241	9218	22.1	0
241	9218	22.2	0
241	9218	22.3	0
241	9218	22.4	0
241	9218	22.5	0
241	9218	22.6	0
241	9218	22.7	0
241	9218	22.8	0
241	9218	22.9	0
241	9218	23	0
241	9218	23.1	0
241	9218	23.2	0
241	9218	23.3	0
241	9218	23.4	0
241	9218	23.5	0
241	9218	23.6	0
241	9218	23.7	0
241	9218	23.8	0
241	9218	23.9	0
241	9218	24	0
241	9218	24.1	0
241	9218	24.2	0
241	9218	24.3	0
241	9218	24.4	0
241	9218	24.5	0
241	9218	24.6	0
241	9218	24.7	0
241	9218	24.8	0
241	9218	24.9	0
241	9218	25	0
241	9218	25.1	0
241	9218	25.2	0
241	9218	25.3	0
241	9218	25.4	0
241	9218	25.5	0
241	9218	25.6	0
241	9218	25.7	0
241	9218	25.8	0
241	9218	25.9	0
241	9218	26	0
241	9218	26.1	0
241	9218	26.2	0
241	9218	26.3	0
241	9218	26.4	0
241	9218	26.5	0
241	9218	26.6	0
241	9218	26.7	0
241	9218	26.8	0
241	9218	26.9	0
241	9218	27	0
241	9218	27.1	0
241	9218	27.2	0
241	9218	27.3	0
241	9218	27.4	0
241	9218	27.5	0
241	9218	27.6	0
241	9218	27.7	0
241	9218	27.8	0
241	9218	27.9	0
241	9218	28	0
241	9218	28.1	0
241	9218	28.2	0
241	9218	28.3	0
241	9218	28.4	0
241	9218	28.5	0
241	9218	28.6	0
241	9218	28.7	0
241	9218	28.8	0
241	9218	28.9	0
241	9218	29	0
241	9218	29.1	0
241	9218	29.2	0
241	9218	29.3	0
241	9218	29.4	0
241	9218	29.5	0
241	9218	29.6	0
241	9218	29.7	0
241	9218	29.8	0
241	9218	29.9	0
241	9218	30	0
241	9218	30.1	0
241	9218	30.2	0
241	9218	30.3	0
241	9218	30.4	0
241	9218	30.5	0
241	9218	30.6	0
241	9218	30.7	0
241	9218	30.8	0
241	9218	30.9	0
241	9218	31	0
241	9218	31.1	0
241	9218	31.2	0
241	9218	31.3	0
241	9218	31.4	0
241	9218	31.5	0
241	9218	31.6	0
241	9218	31.7	0
241	9218	31.8	0
241	9218	31.9	0
241	9218	32	0
241	9218	32.1	0
241	9218	32.2	0
241	9218	32.3	0
241	9218	32.4	0
241	9218	32.5	0
241	9218	32.6	0
241	9218	32.7	0
241	9218	32.8	0
241	9218	32.9	0
241	9218	33	0
241	9218	33.1	0
241	9218	33.2	0
241	9218	33.3	0
241	9218	33.4	0
241	9218	33.5	0
241	9218	33.6	0
241	9218	33.7	0
241	9218	33.8	0
241	9218	33.9	0
241	9218	34	0
241	9218	34.1	0
241	9218	34.2	0
241	9218	34.3	0
241	9218	34.4	0
241	9218	34.5	0
241	9218	34.6	0
241	9218	34.7	0
241	9218	34.8	0
241	9218	34.9	0
241	9218	35	0
241	9218	35.1	0
241	9218	35.2	0
241	9218	35.3	0
241	9218	35.4	0
241	9218	35.5	0
241	9218	35.6	0
241	9218	35.7	0
241	9218	35.8	0
241	9218	35.9	0
241	9218	36	0
241	9218	36.1	0
241	9218	36.2	0
241	9218	36.3	0
241	9218	36.4	0
241	9218	36.5	0
241	9218	36.6	0
241	9218	36.7	0
241	9218	36.8	0
241	9218	36.9	0
241	9218	37	0
241	9218	37.1	0
241	9218	37.2	0
241	9218	37.3	0
241	9218	37.4	0
241	9218	37.5	0
241	9218	37.6	0
241	9218	37.7	0
241	9218	37.8	0
241	9218	37.9	0
241	9218	38	0
241	9218	38.1	0
241	9218	38.2	0
241	9218	38.3	0
241	9218	38.4	0
241	9218	38.5	0
241	9218	38.6	0
241	9218	38.7	0
241	9218	38.8	0
241	9218	38.9	0
241	9218	39	0
241	9218	39.1	0
241	9218	39.2	0
241	9218	39.3	0
241	9218	39.4	0
241	9218	39.5	0
241	9218	39.6	0
241	9218	39.7	0
241	9218	39.8	0
241	9218	39.9	0
241	9218	40	0
241	9218	40.1	0
241	9218	40.2	0
241	9218	40.3	0
241	9218	40.4	0
241	9218	40.5	0
241	9218	40.6	0
241	9218	40.7	0
241	9218	40.8	0
241	9218	40.9	0
241	9218	41	0
241	9218	41.1	0
241	9218	41.2	0
241	9218	41.3	0
241	9218	41.4	0
241	9218	41.5	0
241	9218	41.6	0
241	9218	41.7	0
241	9218	41.8	0
241	9218	41.9	0
241	9218	42	0
241	9218	42.1	0
241	9218	42.2	0
241	9218	42.3	0
241	9218	42.4	0
241	9218	42.5	0
241	9218	42.6	0
241	9218	42.7	0
241	9218	42.8	0
241	9218	42.9	0
241	9218	43	0
241	9218	43.1	0
241	9218	43.2	0
241	9218	43.3	0
241	9218	43.4	0
241	9218	43.5	0
241	9218	43.6	0
241	9218	43.7	0
241	9218	43.8	0
241	9218	43.9	0
241	9218	44	0
241	9218	44.1	0
241	9218	44.2	0
241	9218	44.3	0
241	9218	44.4	0
241	9218	44.5	0
241	9218	44.6	0
241	9218	44.7	0
241	9218	44.8	0
241	9218	44.9	0
241	9218	45	0
241	9218	45.1	0
241	9218	45.2	0
241	9218	45.3	0
241	9218	45.4	0
241	9218	45.5	0
241	9218	45.6	0
241	9218	45.7	0
241	9218	45.8	0
241	9218	45.9	0
241	9218	46	0
241	9218	46.1	0
241	9218	46.2	0
241	9218	46.3	0
241	9218	46.4	0
241	9218	46.5	0
241	9218	46.6	0
241	9218	46.7	0
241	9218	46.8	0
241	9218	46.9	0
241	9218	47	0
241	9218	47.1	0
241	9218	47.2	0
241	9218	47.3	0
241	9218	47.4	0
241	9218	47.5	0
241	9218	47.6	0
241	9218	47.7	0
241	9218	47.8	0
241	9218	47.9	0
241	9218	48	0
241	9218	48.1	0
241	9218	48.2	0
241	9218	48.3	0
241	9218	48.4	0
241	9218	48.5	0
241	9218	48.6	0
241	9218	48.7	0
241	9218	48.8	0
241	9218	48.9	0
241	9218	49	0
241	9218	49.1	0
241	9218	49.2	0
241	9218	49.3	0
241	9218	49.4	0
241	9218	49.5	0
241	9218	49.6	0
241	9218	49.7	0
241	9218	49.8	0
241	9218	49.9	0
241	9218	50	0
241	9218	50.1	0
241	9218	50.2	0
241	9218	50.3	0
241	9218	50.4	0
241	9218	50.5	0
241	9218	50.6	0
241	9218	50.7	0
241	9218	50.8	0
241	9218	50.9	0
241	9218	51	0
241	9218	51.1	0
241	9218	51.2	0
241	9218	51.3	0
241	9218	51.4	0
241	9218	51.5	0
241	9218	51.6	0
241	9218	51.7	0
241	9218	51.8	0
241	9218	51.9	0
241	9218	52	0
241	9218	52.1	0
241	9218	52.2	0
241	9218	52.3	0
241	9218	52.4	0
241	9218	52.5	0
241	9218	52.6	0
241	9218	52.7	0
241	9218	52.8	0
241	9218	52.9	0
241	9218	53	0
241	9218	53.1	0
241	9218	53.2	0
241	9218	53.3	0
241	9218	53.4	0
241	9218	53.5	0
241	9218	53.6	0
241	9218	53.7	0
241	9218	53.8	0
241	9218	53.9	0
241	9218	54	0
241	9218	54.1	0
241	9218	54.2	0
241	9218	54.3	0
241	9218	54.4	0
241	9218	54.5	0
241	9218	54.6	0
241	9218	54.7	0
241	9218	54.8	0
241	9218	54.9	0
241	9218	55	0
241	9218	55.1	0
241	9218	55.2	0
241	9218	55.3	0
241	9218	55.4	0
241	9218	55.5	0
241	9218	55.6	0
241	9218	55.7	0
241	9218	55.8	0
241	9218	55.9	0
241	9218	56	0
241	9218	56.1	0
241	9218	56.2	0
241	9218	56.3	0
241	9218	56.4	0
241	9218	56.5	0
241	9218	56.6	0
241	9218	56.7	0
241	9218	56.8	0
241	9218	56.9	0
241	9218	57	0
241	9218	57.1	0
241	9218	57.2	0
241	9218	57.3	0
241	9218	57.4	0
241	9218	57.5	0
241	9218	57.6	0
241	9218	57.7	0
241	9218	57.8	0
241	9218	57.9	0
241	9218	58	0
241	9218	58.1	0
241	9218	58.2	0
241	9218	58.3	0
241	9218	58.4	0
241	9218	58.5	0
241	9218	58.6	0
241	9218	58.7	0
241	9218	58.8	0
241	9218	58.9	0
241	9218	59	0
241	9218	59.1	0
241	9218	59.2	0
241	9218	59.3	0
241	9218	59.4	0
241	9218	59.5	0
241	9218	59.6	0
241	9218	59.7	0
241	9218	59.8	0
241	9218	59.9	0
241	9218	60	0
241	9218	60.1	0
241	9218	60.2	0
241	9218	60.3	0
241	9218	60.4	0
241	9218	60.5	0

