version 2
run General-0-20230515-15:36:44-2789
attr configname General
attr datetime 20230515-15:36:44
attr experiment General
attr inifile omnetpp.ini
attr iterationvars ""
attr iterationvarsf ""
attr measurement ""
attr network Scenario
attr processid 2789
attr repetition 0
attr replication #0
attr resultdir results
attr runnumber 0
attr seedset 0
param *.*_car[*].ipv4.arp.typename "\"GlobalArp\""
param *.normal_car[1].numApps 1
param *.normal_car[1].app[0].typename "\"UdpBasicApp\""
param *.normal_car[1].app[0].destAddresses "\"normal_car[6]\""
param *.normal_car[1].app[0].localPort 5000
param *.normal_car[1].app[0].destPort 5000
param *.normal_car[1].app[0].messageLength 100B
param *.normal_car[1].app[0].sendInterval 1s
param *.normal_car[1].app[0].startTime 20s
param *.normal_car[1].app[0].packetName "\"UDPData\""
param *.normal_car[*].numApps 1
param *.normal_car[*].app[0].typename "\"UdpSink\""
param *.normal_car[*].app[0].localPort 5000
param *.normal_car[*].routing.deletePeriod 5s
param *.*_car[*].wlan[*].typename "\"AckingWirelessInterface\""
param *.*_car[*].wlan[*].bitrate 2Mbps
param *.*_car[*].wlan[*].mac.headerLength 23B
param *.*_car[*].wlan[*].radio.typename "\"UnitDiskRadio\""
param *.*_car[*].wlan[*].radio.transmitter.headerLength 96b
param *.*_car[*].wlan[*].radio.transmitter.communicationRange 70m
param *.*_car[*].wlan[*].radio.transmitter.interferenceRange 0m
param *.*_car[*].wlan[*].radio.transmitter.detectionRange 0m
param *.*_car[*].wlan[*].radio.receiver.ignoreInterference true
param *.*_car[*].ipv4.configurator.typename "\"HostAutoConfigurator\""
param *.*_car[*].ipv4.configurator.interfaces "\"wlan0\""
param *.*_car[*].ipv4.configurator.mcastGroups "\"224.0.0.1\""
param *.*_car[*].mobility.typename "\"VeinsInetMobility\""
param *.manager.updateInterval 0.1s
param *.manager.launchConfig "xmldoc(\"arcavacatamap.launchd.xml\")"
param *.manager.moduleType "\"normal_car=networkprojectvanet.veins_inet.AodvCar *=networkprojectvanet.veins_inet.AodvCar\""
param *.manager.moduleDisplayString "\"normal_car='i=veins/node/car;is=vs' *='i=veins/node/car;is=vs'\""
param *.manager.moduleName "\"normal_car=normal_car *=normal_car\""
param *.*_car[*].wlan[0].radio.energyConsumer.typename "\"StateBasedEpEnergyConsumer\""
param *.*_car[*].wlan[0].radio.energyConsumer.offPowerConsumption 0mW
param *.*_car[*].wlan[0].radio.energyConsumer.sleepPowerConsumption 1mW
param *.*_car[*].wlan[0].radio.energyConsumer.switchingPowerConsumption 1mW
param *.*_car[*].wlan[0].radio.energyConsumer.receiverIdlePowerConsumption 2mW
param *.*_car[*].wlan[0].radio.energyConsumer.receiverBusyPowerConsumption 5mW
param *.*_car[*].wlan[0].radio.energyConsumer.receiverReceivingPowerConsumption 10mW
param *.*_car[*].wlan[0].radio.energyConsumer.transmitterIdlePowerConsumption 2mW
param *.*_car[*].wlan[0].radio.energyConsumer.transmitterTransmittingPowerConsumption 100mW
param *.*_car[*].energyStorage.typename "\"IdealEpEnergyStorage\""
param *.*_car[*].wlan[0].radio.displayCommunicationRange true
param *.visualizer.networkRouteVisualizer.displayRoutes true

vector 0 Scenario.normal_car[0].energyStorage residualEnergyCapacity:vector ETV
attr interpolationmode linear
attr source residualEnergyCapacityChanged
attr title "Residual energy capacity, vector"
vector 1 Scenario.normal_car[0].energyStorage powerConsumption:vector ETV
attr interpolationmode sample-hold
attr source powerConsumptionChanged
attr title "Power consumption, vector"
vector 2 Scenario.normal_car[0].wlan[0].radio radioMode:vector ETV
attr interpolationmode sample-hold
attr source radioModeChanged
attr title "Radio mode, vector"
vector 3 Scenario.normal_car[0].wlan[0].radio.energyConsumer powerConsumption:vector ETV
attr interpolationmode sample-hold
attr source powerConsumptionChanged
attr title "Power consumption, vector"
vector 4 Scenario.normal_car[0].wlan[0].radio receptionState:vector ETV
attr interpolationmode sample-hold
attr source receptionStateChanged
attr title "Radio reception state, vector"
vector 5 Scenario.normal_car[0].wlan[0].radio transmissionState:vector ETV
attr interpolationmode sample-hold
attr source transmissionStateChanged
attr title "Radio transmission state, vector"
vector 6 Scenario.normal_car[1].energyStorage residualEnergyCapacity:vector ETV
attr interpolationmode linear
attr source residualEnergyCapacityChanged
attr title "Residual energy capacity, vector"
vector 7 Scenario.normal_car[1].energyStorage powerConsumption:vector ETV
attr interpolationmode sample-hold
attr source powerConsumptionChanged
attr title "Power consumption, vector"
vector 8 Scenario.normal_car[1].wlan[0].radio radioMode:vector ETV
attr interpolationmode sample-hold
attr source radioModeChanged
attr title "Radio mode, vector"
vector 9 Scenario.normal_car[1].wlan[0].radio.energyConsumer powerConsumption:vector ETV
attr interpolationmode sample-hold
attr source powerConsumptionChanged
attr title "Power consumption, vector"
vector 10 Scenario.normal_car[1].wlan[0].radio receptionState:vector ETV
attr interpolationmode sample-hold
attr source receptionStateChanged
attr title "Radio reception state, vector"
vector 11 Scenario.normal_car[1].wlan[0].radio transmissionState:vector ETV
attr interpolationmode sample-hold
attr source transmissionStateChanged
attr title "Radio transmission state, vector"
0	2	0.1	0
1	2	0.1	0
1	2	0.1	0
1	2	0.1	0
1	2	0.1	0
1	2	0.1	0.002
1	2	0.1	0.004
2	2	0.1	0
2	2	0.1	0
2	2	0.1	4
3	2	0.1	0
3	2	0.1	0
3	2	0.1	0
3	2	0.1	0.002
3	2	0.1	0.004
4	2	0.1	1
5	2	0.1	1
6	2	0.1	0
7	2	0.1	0
7	2	0.1	0
7	2	0.1	0
7	2	0.1	0
7	2	0.1	0.002
7	2	0.1	0.004
8	2	0.1	0
8	2	0.1	0
8	2	0.1	4
9	2	0.1	0
9	2	0.1	0
9	2	0.1	0
9	2	0.1	0.002
9	2	0.1	0.004
10	2	0.1	1
11	2	0.1	1
vector 12 Scenario.normal_car[2].energyStorage residualEnergyCapacity:vector ETV
attr interpolationmode linear
attr source residualEnergyCapacityChanged
attr title "Residual energy capacity, vector"
vector 13 Scenario.normal_car[2].energyStorage powerConsumption:vector ETV
attr interpolationmode sample-hold
attr source powerConsumptionChanged
attr title "Power consumption, vector"
vector 14 Scenario.normal_car[2].wlan[0].radio radioMode:vector ETV
attr interpolationmode sample-hold
attr source radioModeChanged
attr title "Radio mode, vector"
vector 15 Scenario.normal_car[2].wlan[0].radio.energyConsumer powerConsumption:vector ETV
attr interpolationmode sample-hold
attr source powerConsumptionChanged
attr title "Power consumption, vector"
vector 16 Scenario.normal_car[2].wlan[0].radio receptionState:vector ETV
attr interpolationmode sample-hold
attr source receptionStateChanged
attr title "Radio reception state, vector"
vector 17 Scenario.normal_car[2].wlan[0].radio transmissionState:vector ETV
attr interpolationmode sample-hold
attr source transmissionStateChanged
attr title "Radio transmission state, vector"
vector 18 Scenario.normal_car[3].energyStorage residualEnergyCapacity:vector ETV
attr interpolationmode linear
attr source residualEnergyCapacityChanged
attr title "Residual energy capacity, vector"
vector 19 Scenario.normal_car[3].energyStorage powerConsumption:vector ETV
attr interpolationmode sample-hold
attr source powerConsumptionChanged
attr title "Power consumption, vector"
vector 20 Scenario.normal_car[3].wlan[0].radio radioMode:vector ETV
attr interpolationmode sample-hold
attr source radioModeChanged
attr title "Radio mode, vector"
vector 21 Scenario.normal_car[3].wlan[0].radio.energyConsumer powerConsumption:vector ETV
attr interpolationmode sample-hold
attr source powerConsumptionChanged
attr title "Power consumption, vector"
vector 22 Scenario.normal_car[3].wlan[0].radio receptionState:vector ETV
attr interpolationmode sample-hold
attr source receptionStateChanged
attr title "Radio reception state, vector"
vector 23 Scenario.normal_car[3].wlan[0].radio transmissionState:vector ETV
attr interpolationmode sample-hold
attr source transmissionStateChanged
attr title "Radio transmission state, vector"
vector 24 Scenario.normal_car[4].energyStorage residualEnergyCapacity:vector ETV
attr interpolationmode linear
attr source residualEnergyCapacityChanged
attr title "Residual energy capacity, vector"
vector 25 Scenario.normal_car[4].energyStorage powerConsumption:vector ETV
attr interpolationmode sample-hold
attr source powerConsumptionChanged
attr title "Power consumption, vector"
vector 26 Scenario.normal_car[4].wlan[0].radio radioMode:vector ETV
attr interpolationmode sample-hold
attr source radioModeChanged
attr title "Radio mode, vector"
vector 27 Scenario.normal_car[4].wlan[0].radio.energyConsumer powerConsumption:vector ETV
attr interpolationmode sample-hold
attr source powerConsumptionChanged
attr title "Power consumption, vector"
vector 28 Scenario.normal_car[4].wlan[0].radio receptionState:vector ETV
attr interpolationmode sample-hold
attr source receptionStateChanged
attr title "Radio reception state, vector"
vector 29 Scenario.normal_car[4].wlan[0].radio transmissionState:vector ETV
attr interpolationmode sample-hold
attr source transmissionStateChanged
attr title "Radio transmission state, vector"
vector 30 Scenario.normal_car[5].energyStorage residualEnergyCapacity:vector ETV
attr interpolationmode linear
attr source residualEnergyCapacityChanged
attr title "Residual energy capacity, vector"
vector 31 Scenario.normal_car[5].energyStorage powerConsumption:vector ETV
attr interpolationmode sample-hold
attr source powerConsumptionChanged
attr title "Power consumption, vector"
vector 32 Scenario.normal_car[5].wlan[0].radio radioMode:vector ETV
attr interpolationmode sample-hold
attr source radioModeChanged
attr title "Radio mode, vector"
vector 33 Scenario.normal_car[5].wlan[0].radio.energyConsumer powerConsumption:vector ETV
attr interpolationmode sample-hold
attr source powerConsumptionChanged
attr title "Power consumption, vector"
vector 34 Scenario.normal_car[5].wlan[0].radio receptionState:vector ETV
attr interpolationmode sample-hold
attr source receptionStateChanged
attr title "Radio reception state, vector"
vector 35 Scenario.normal_car[5].wlan[0].radio transmissionState:vector ETV
attr interpolationmode sample-hold
attr source transmissionStateChanged
attr title "Radio transmission state, vector"
vector 36 Scenario.normal_car[6].energyStorage residualEnergyCapacity:vector ETV
attr interpolationmode linear
attr source residualEnergyCapacityChanged
attr title "Residual energy capacity, vector"
vector 37 Scenario.normal_car[6].energyStorage powerConsumption:vector ETV
attr interpolationmode sample-hold
attr source powerConsumptionChanged
attr title "Power consumption, vector"
vector 38 Scenario.normal_car[6].wlan[0].radio radioMode:vector ETV
attr interpolationmode sample-hold
attr source radioModeChanged
attr title "Radio mode, vector"
vector 39 Scenario.normal_car[6].wlan[0].radio.energyConsumer powerConsumption:vector ETV
attr interpolationmode sample-hold
attr source powerConsumptionChanged
attr title "Power consumption, vector"
vector 40 Scenario.normal_car[6].wlan[0].radio receptionState:vector ETV
attr interpolationmode sample-hold
attr source receptionStateChanged
attr title "Radio reception state, vector"
vector 41 Scenario.normal_car[6].wlan[0].radio transmissionState:vector ETV
attr interpolationmode sample-hold
attr source transmissionStateChanged
attr title "Radio transmission state, vector"
vector 42 Scenario.normal_car[7].energyStorage residualEnergyCapacity:vector ETV
attr interpolationmode linear
attr source residualEnergyCapacityChanged
attr title "Residual energy capacity, vector"
vector 43 Scenario.normal_car[7].energyStorage powerConsumption:vector ETV
attr interpolationmode sample-hold
attr source powerConsumptionChanged
attr title "Power consumption, vector"
vector 44 Scenario.normal_car[7].wlan[0].radio radioMode:vector ETV
attr interpolationmode sample-hold
attr source radioModeChanged
attr title "Radio mode, vector"
vector 45 Scenario.normal_car[7].wlan[0].radio.energyConsumer powerConsumption:vector ETV
attr interpolationmode sample-hold
attr source powerConsumptionChanged
attr title "Power consumption, vector"
vector 46 Scenario.normal_car[7].wlan[0].radio receptionState:vector ETV
attr interpolationmode sample-hold
attr source receptionStateChanged
attr title "Radio reception state, vector"
vector 47 Scenario.normal_car[7].wlan[0].radio transmissionState:vector ETV
attr interpolationmode sample-hold
attr source transmissionStateChanged
attr title "Radio transmission state, vector"
vector 48 Scenario.normal_car[8].energyStorage residualEnergyCapacity:vector ETV
attr interpolationmode linear
attr source residualEnergyCapacityChanged
attr title "Residual energy capacity, vector"
vector 49 Scenario.normal_car[8].energyStorage powerConsumption:vector ETV
attr interpolationmode sample-hold
attr source powerConsumptionChanged
attr title "Power consumption, vector"
vector 50 Scenario.normal_car[8].wlan[0].radio radioMode:vector ETV
attr interpolationmode sample-hold
attr source radioModeChanged
attr title "Radio mode, vector"
vector 51 Scenario.normal_car[8].wlan[0].radio.energyConsumer powerConsumption:vector ETV
attr interpolationmode sample-hold
attr source powerConsumptionChanged
attr title "Power consumption, vector"
vector 52 Scenario.normal_car[8].wlan[0].radio receptionState:vector ETV
attr interpolationmode sample-hold
attr source receptionStateChanged
attr title "Radio reception state, vector"
vector 53 Scenario.normal_car[8].wlan[0].radio transmissionState:vector ETV
attr interpolationmode sample-hold
attr source transmissionStateChanged
attr title "Radio transmission state, vector"
vector 54 Scenario.normal_car[9].energyStorage residualEnergyCapacity:vector ETV
attr interpolationmode linear
attr source residualEnergyCapacityChanged
attr title "Residual energy capacity, vector"
vector 55 Scenario.normal_car[9].energyStorage powerConsumption:vector ETV
attr interpolationmode sample-hold
attr source powerConsumptionChanged
attr title "Power consumption, vector"
vector 56 Scenario.normal_car[9].wlan[0].radio radioMode:vector ETV
attr interpolationmode sample-hold
attr source radioModeChanged
attr title "Radio mode, vector"
vector 57 Scenario.normal_car[9].wlan[0].radio.energyConsumer powerConsumption:vector ETV
attr interpolationmode sample-hold
attr source powerConsumptionChanged
attr title "Power consumption, vector"
vector 58 Scenario.normal_car[9].wlan[0].radio receptionState:vector ETV
attr interpolationmode sample-hold
attr source receptionStateChanged
attr title "Radio reception state, vector"
vector 59 Scenario.normal_car[9].wlan[0].radio transmissionState:vector ETV
attr interpolationmode sample-hold
attr source transmissionStateChanged
attr title "Radio transmission state, vector"
vector 60 Scenario.normal_car[10].energyStorage residualEnergyCapacity:vector ETV
attr interpolationmode linear
attr source residualEnergyCapacityChanged
attr title "Residual energy capacity, vector"
vector 61 Scenario.normal_car[10].energyStorage powerConsumption:vector ETV
attr interpolationmode sample-hold
attr source powerConsumptionChanged
attr title "Power consumption, vector"
vector 62 Scenario.normal_car[10].wlan[0].radio radioMode:vector ETV
attr interpolationmode sample-hold
attr source radioModeChanged
attr title "Radio mode, vector"
vector 63 Scenario.normal_car[10].wlan[0].radio.energyConsumer powerConsumption:vector ETV
attr interpolationmode sample-hold
attr source powerConsumptionChanged
attr title "Power consumption, vector"
vector 64 Scenario.normal_car[10].wlan[0].radio receptionState:vector ETV
attr interpolationmode sample-hold
attr source receptionStateChanged
attr title "Radio reception state, vector"
vector 65 Scenario.normal_car[10].wlan[0].radio transmissionState:vector ETV
attr interpolationmode sample-hold
attr source transmissionStateChanged
attr title "Radio transmission state, vector"
vector 66 Scenario.normal_car[11].energyStorage residualEnergyCapacity:vector ETV
attr interpolationmode linear
attr source residualEnergyCapacityChanged
attr title "Residual energy capacity, vector"
vector 67 Scenario.normal_car[11].energyStorage powerConsumption:vector ETV
attr interpolationmode sample-hold
attr source powerConsumptionChanged
attr title "Power consumption, vector"
vector 68 Scenario.normal_car[11].wlan[0].radio radioMode:vector ETV
attr interpolationmode sample-hold
attr source radioModeChanged
attr title "Radio mode, vector"
vector 69 Scenario.normal_car[11].wlan[0].radio.energyConsumer powerConsumption:vector ETV
attr interpolationmode sample-hold
attr source powerConsumptionChanged
attr title "Power consumption, vector"
vector 70 Scenario.normal_car[11].wlan[0].radio receptionState:vector ETV
attr interpolationmode sample-hold
attr source receptionStateChanged
attr title "Radio reception state, vector"
vector 71 Scenario.normal_car[11].wlan[0].radio transmissionState:vector ETV
attr interpolationmode sample-hold
attr source transmissionStateChanged
attr title "Radio transmission state, vector"
12	52	3.8	0
13	52	3.8	0
13	52	3.8	0
13	52	3.8	0
13	52	3.8	0
13	52	3.8	0.002
13	52	3.8	0.004
14	52	3.8	0
14	52	3.8	0
14	52	3.8	4
15	52	3.8	0
15	52	3.8	0
15	52	3.8	0
15	52	3.8	0.002
15	52	3.8	0.004
16	52	3.8	1
17	52	3.8	1
18	58	3.9	0
19	58	3.9	0
19	58	3.9	0
19	58	3.9	0
19	58	3.9	0
19	58	3.9	0.002
19	58	3.9	0.004
20	58	3.9	0
20	58	3.9	0
20	58	3.9	4
21	58	3.9	0
21	58	3.9	0
21	58	3.9	0
21	58	3.9	0.002
21	58	3.9	0.004
22	58	3.9	1
23	58	3.9	1
24	113	7.5	0
25	113	7.5	0
25	113	7.5	0
25	113	7.5	0
25	113	7.5	0
25	113	7.5	0.002
25	113	7.5	0.004
26	113	7.5	0
26	113	7.5	0
26	113	7.5	4
27	113	7.5	0
27	113	7.5	0
27	113	7.5	0
27	113	7.5	0.002
27	113	7.5	0.004
28	113	7.5	1
29	113	7.5	1
30	119	7.6	0
31	119	7.6	0
31	119	7.6	0
31	119	7.6	0
31	119	7.6	0
31	119	7.6	0.002
31	119	7.6	0.004
32	119	7.6	0
32	119	7.6	0
32	119	7.6	4
33	119	7.6	0
33	119	7.6	0
33	119	7.6	0
33	119	7.6	0.002
33	119	7.6	0.004
34	119	7.6	1
35	119	7.6	1
36	182	11.2	0
37	182	11.2	0
37	182	11.2	0
37	182	11.2	0
37	182	11.2	0
37	182	11.2	0.002
37	182	11.2	0.004
38	182	11.2	0
38	182	11.2	0
38	182	11.2	4
39	182	11.2	0
39	182	11.2	0
39	182	11.2	0
39	182	11.2	0.002
39	182	11.2	0.004
40	182	11.2	1
41	182	11.2	1
42	189	11.4	0
43	189	11.4	0
43	189	11.4	0
43	189	11.4	0
43	189	11.4	0
43	189	11.4	0.002
43	189	11.4	0.004
44	189	11.4	0
44	189	11.4	0
44	189	11.4	4
45	189	11.4	0
45	189	11.4	0
45	189	11.4	0
45	189	11.4	0.002
45	189	11.4	0.004
46	189	11.4	1
47	189	11.4	1
48	257	14.9	0
49	257	14.9	0
49	257	14.9	0
49	257	14.9	0
49	257	14.9	0
49	257	14.9	0.002
49	257	14.9	0.004
50	257	14.9	0
50	257	14.9	0
50	257	14.9	4
51	257	14.9	0
51	257	14.9	0
51	257	14.9	0
51	257	14.9	0.002
51	257	14.9	0.004
52	257	14.9	1
53	257	14.9	1
54	266	15.1	0
55	266	15.1	0
55	266	15.1	0
55	266	15.1	0
55	266	15.1	0
55	266	15.1	0.002
55	266	15.1	0.004
56	266	15.1	0
56	266	15.1	0
56	266	15.1	4
57	266	15.1	0
57	266	15.1	0
57	266	15.1	0
57	266	15.1	0.002
57	266	15.1	0.004
58	266	15.1	1
59	266	15.1	1
60	341	18.7	0
61	341	18.7	0
61	341	18.7	0
61	341	18.7	0
61	341	18.7	0
61	341	18.7	0.002
61	341	18.7	0.004
62	341	18.7	0
62	341	18.7	0
62	341	18.7	4
63	341	18.7	0
63	341	18.7	0
63	341	18.7	0
63	341	18.7	0.002
63	341	18.7	0.004
64	341	18.7	1
65	341	18.7	1
66	348	18.8	0
67	348	18.8	0
67	348	18.8	0
67	348	18.8	0
67	348	18.8	0
67	348	18.8	0.002
67	348	18.8	0.004
68	348	18.8	0
68	348	18.8	0
68	348	18.8	4
69	348	18.8	0
69	348	18.8	0
69	348	18.8	0
69	348	18.8	0.002
69	348	18.8	0.004
70	348	18.8	1
71	348	18.8	1
vector 72 Scenario.normal_car[1].app[0] packetSent:vector(packetBytes) ETV
attr interpolationmode none
attr source packetSent
attr title "packets sent, vector(packetBytes)"
vector 73 Scenario.normal_car[1].udp packetSent:vector(packetBytes) ETV
attr interpolationmode none
attr source packetSent
attr title "packets sent, vector(packetBytes)"
vector 74 Scenario.normal_car[1].wlan[0].mac rcvdPkFromHl:vector(packetBytes) ETV
attr interpolationmode none
attr source packetReceivedFromUpper
attr title "packets received from higher layer, vector(packetBytes)"
vector 75 Scenario.normal_car[1].wlan[0].mac.queue packetPushed:vector(packetBytes) ETV
attr interpolationmode none
attr title "packet pushed, vector(packetBytes)"
vector 76 Scenario.normal_car[1].wlan[0].mac.queue queueLength:vector ETV
attr interpolationmode sample-hold
attr source "count(packetPushed) - count(packetPopped) - count(packetRemoved) - count(packetDropped)"
attr title "queue length, vector"
vector 77 Scenario.normal_car[1].wlan[0].mac.queue packetPopped:vector(packetBytes) ETV
attr interpolationmode none
attr title "packet popped, vector(packetBytes)"
vector 78 Scenario.normal_car[1].wlan[0].mac.queue queueingTime:vector ETV
attr interpolationmode none
attr source queueingTime(packetPopped)
attr title "queueing times, vector"
attr unit s
vector 79 Scenario.normal_car[1].wlan[0].mac sentDownPk:vector(packetBytes) ETV
attr interpolationmode none
attr source packetSentToLower
attr title "packets sent to lower layer, vector(packetBytes)"
vector 80 Scenario.normal_car[2].wlan[0].mac rcvdPkFromLl:vector(packetBytes) ETV
attr interpolationmode none
attr source packetReceivedFromLower
attr title "packets received from lower layer, vector(packetBytes)"
vector 81 Scenario.normal_car[2].wlan[0].mac passedUpPk:vector(packetBytes) ETV
attr interpolationmode none
attr source packetSentToUpper
attr title "packets passed to higher layer, vector(packetBytes)"
vector 82 Scenario.normal_car[2].udp packetReceived:vector(packetBytes) ETV
attr interpolationmode none
attr source packetReceived
attr title "packets received, vector(packetBytes)"
vector 83 Scenario.normal_car[2].udp passedUpPk:vector(count) ETV
attr interpolationmode none
attr source packetSentToUpper
attr title "packets passed up, vector(count)"
vector 84 Scenario.normal_car[2].udp packetSent:vector(packetBytes) ETV
attr interpolationmode none
attr source packetSent
attr title "packets sent, vector(packetBytes)"
vector 85 Scenario.normal_car[2].wlan[0].mac rcvdPkFromHl:vector(packetBytes) ETV
attr interpolationmode none
attr source packetReceivedFromUpper
attr title "packets received from higher layer, vector(packetBytes)"
vector 86 Scenario.normal_car[2].wlan[0].mac.queue packetPushed:vector(packetBytes) ETV
attr interpolationmode none
attr title "packet pushed, vector(packetBytes)"
vector 87 Scenario.normal_car[2].wlan[0].mac.queue queueLength:vector ETV
attr interpolationmode sample-hold
attr source "count(packetPushed) - count(packetPopped) - count(packetRemoved) - count(packetDropped)"
attr title "queue length, vector"
vector 88 Scenario.normal_car[2].wlan[0].mac.queue packetPopped:vector(packetBytes) ETV
attr interpolationmode none
attr title "packet popped, vector(packetBytes)"
vector 89 Scenario.normal_car[2].wlan[0].mac.queue queueingTime:vector ETV
attr interpolationmode none
attr source queueingTime(packetPopped)
attr title "queueing times, vector"
attr unit s
vector 90 Scenario.normal_car[2].wlan[0].mac sentDownPk:vector(packetBytes) ETV
attr interpolationmode none
attr source packetSentToLower
attr title "packets sent to lower layer, vector(packetBytes)"
vector 91 Scenario.normal_car[1].wlan[0].mac rcvdPkFromLl:vector(packetBytes) ETV
attr interpolationmode none
attr source packetReceivedFromLower
attr title "packets received from lower layer, vector(packetBytes)"
vector 92 Scenario.normal_car[1].wlan[0].mac passedUpPk:vector(packetBytes) ETV
attr interpolationmode none
attr source packetSentToUpper
attr title "packets passed to higher layer, vector(packetBytes)"
vector 93 Scenario.normal_car[1].udp packetReceived:vector(packetBytes) ETV
attr interpolationmode none
attr source packetReceived
attr title "packets received, vector(packetBytes)"
vector 94 Scenario.normal_car[1].udp passedUpPk:vector(count) ETV
attr interpolationmode none
attr source packetSentToUpper
attr title "packets passed up, vector(count)"
vector 95 Scenario.normal_car[4].wlan[0].mac rcvdPkFromLl:vector(packetBytes) ETV
attr interpolationmode none
attr source packetReceivedFromLower
attr title "packets received from lower layer, vector(packetBytes)"
vector 96 Scenario.normal_car[4].wlan[0].mac passedUpPk:vector(packetBytes) ETV
attr interpolationmode none
attr source packetSentToUpper
attr title "packets passed to higher layer, vector(packetBytes)"
vector 97 Scenario.normal_car[4].udp packetReceived:vector(packetBytes) ETV
attr interpolationmode none
attr source packetReceived
attr title "packets received, vector(packetBytes)"
vector 98 Scenario.normal_car[4].udp passedUpPk:vector(count) ETV
attr interpolationmode none
attr source packetSentToUpper
attr title "packets passed up, vector(count)"
vector 99 Scenario.normal_car[4].udp packetSent:vector(packetBytes) ETV
attr interpolationmode none
attr source packetSent
attr title "packets sent, vector(packetBytes)"
vector 100 Scenario.normal_car[4].wlan[0].mac rcvdPkFromHl:vector(packetBytes) ETV
attr interpolationmode none
attr source packetReceivedFromUpper
attr title "packets received from higher layer, vector(packetBytes)"
vector 101 Scenario.normal_car[4].wlan[0].mac.queue packetPushed:vector(packetBytes) ETV
attr interpolationmode none
attr title "packet pushed, vector(packetBytes)"
vector 102 Scenario.normal_car[4].wlan[0].mac.queue queueLength:vector ETV
attr interpolationmode sample-hold
attr source "count(packetPushed) - count(packetPopped) - count(packetRemoved) - count(packetDropped)"
attr title "queue length, vector"
vector 103 Scenario.normal_car[4].wlan[0].mac.queue packetPopped:vector(packetBytes) ETV
attr interpolationmode none
attr title "packet popped, vector(packetBytes)"
vector 104 Scenario.normal_car[4].wlan[0].mac.queue queueingTime:vector ETV
attr interpolationmode none
attr source queueingTime(packetPopped)
attr title "queueing times, vector"
attr unit s
vector 105 Scenario.normal_car[4].wlan[0].mac sentDownPk:vector(packetBytes) ETV
attr interpolationmode none
attr source packetSentToLower
attr title "packets sent to lower layer, vector(packetBytes)"
vector 106 Scenario.normal_car[6].wlan[0].mac rcvdPkFromLl:vector(packetBytes) ETV
attr interpolationmode none
attr source packetReceivedFromLower
attr title "packets received from lower layer, vector(packetBytes)"
vector 107 Scenario.normal_car[6].wlan[0].mac passedUpPk:vector(packetBytes) ETV
attr interpolationmode none
attr source packetSentToUpper
attr title "packets passed to higher layer, vector(packetBytes)"
vector 108 Scenario.normal_car[6].udp packetReceived:vector(packetBytes) ETV
attr interpolationmode none
attr source packetReceived
attr title "packets received, vector(packetBytes)"
vector 109 Scenario.normal_car[6].udp passedUpPk:vector(count) ETV
attr interpolationmode none
attr source packetSentToUpper
attr title "packets passed up, vector(count)"
vector 110 Scenario.normal_car[6].udp packetSent:vector(packetBytes) ETV
attr interpolationmode none
attr source packetSent
attr title "packets sent, vector(packetBytes)"
vector 111 Scenario.normal_car[6].wlan[0].mac rcvdPkFromHl:vector(packetBytes) ETV
attr interpolationmode none
attr source packetReceivedFromUpper
attr title "packets received from higher layer, vector(packetBytes)"
vector 112 Scenario.normal_car[6].wlan[0].mac.queue packetPushed:vector(packetBytes) ETV
attr interpolationmode none
attr title "packet pushed, vector(packetBytes)"
vector 113 Scenario.normal_car[6].wlan[0].mac.queue queueLength:vector ETV
attr interpolationmode sample-hold
attr source "count(packetPushed) - count(packetPopped) - count(packetRemoved) - count(packetDropped)"
attr title "queue length, vector"
vector 114 Scenario.normal_car[6].wlan[0].mac.queue packetPopped:vector(packetBytes) ETV
attr interpolationmode none
attr title "packet popped, vector(packetBytes)"
vector 115 Scenario.normal_car[6].wlan[0].mac.queue queueingTime:vector ETV
attr interpolationmode none
attr source queueingTime(packetPopped)
attr title "queueing times, vector"
attr unit s
vector 116 Scenario.normal_car[6].wlan[0].mac sentDownPk:vector(packetBytes) ETV
attr interpolationmode none
attr source packetSentToLower
attr title "packets sent to lower layer, vector(packetBytes)"
vector 117 Scenario.normal_car[8].wlan[0].mac rcvdPkFromLl:vector(packetBytes) ETV
attr interpolationmode none
attr source packetReceivedFromLower
attr title "packets received from lower layer, vector(packetBytes)"
vector 118 Scenario.normal_car[8].wlan[0].mac packetDropNotAddressedToUs:vector(packetBytes) ETV
attr interpolationmode none
attr source packetDropReasonIsNotAddressedToUs(packetDropped)
attr title "packet drop: not addressed to us, vector(packetBytes)"
vector 119 Scenario.normal_car[6].wlan[0].mac packetDropNotAddressedToUs:vector(packetBytes) ETV
attr interpolationmode none
attr source packetDropReasonIsNotAddressedToUs(packetDropped)
attr title "packet drop: not addressed to us, vector(packetBytes)"
vector 120 Scenario.normal_car[4].wlan[0].mac packetDropNotAddressedToUs:vector(packetBytes) ETV
attr interpolationmode none
attr source packetDropReasonIsNotAddressedToUs(packetDropped)
attr title "packet drop: not addressed to us, vector(packetBytes)"
vector 121 Scenario.normal_car[1].wlan[0].mac packetDropNotAddressedToUs:vector(packetBytes) ETV
attr interpolationmode none
attr source packetDropReasonIsNotAddressedToUs(packetDropped)
attr title "packet drop: not addressed to us, vector(packetBytes)"
6	388	20.002964223082	-0.079611856892328
6	400	20.003312223082	-0.079647352892328
6	421	20.006888486371	-0.079661657945484
6	433	20.007236486371	-0.079665833945484
6	466	20.32422132872	-0.08093377331488
6	478	20.32456932872	-0.08096926931488
6	499	20.327583453708	-0.080981325814832
6	511	20.327931453708	-0.080985501814832
6	537	20.332221526408	-0.081002662105632
6	638	20.340194540534	-0.081034554162136
6	650	20.340526540534	-0.081038538162136
6	679	20.341178540534	-0.081105042162136
6	685	20.34117884867	-0.08110504339468
6	707	20.34183084867	-0.08111286739468
6	717	20.341831193271	-0.081112868773084
7	388	20.002964223082	0.002
7	388	20.002964223082	0.102
7	400	20.003312223082	0.004
7	400	20.003312223082	0.004
7	421	20.006888486371	0.002
7	421	20.006888486371	0.012
7	433	20.007236486371	0.004
7	466	20.32422132872	0.002
7	466	20.32422132872	0.002
7	466	20.32422132872	0.102
7	478	20.32456932872	0.004
7	478	20.32456932872	0.004
7	499	20.327583453708	0.002
7	499	20.327583453708	0.012
7	511	20.327931453708	0.004
7	537	20.332221526408	0.004
7	638	20.340194540534	0.002
7	638	20.340194540534	0.012
7	650	20.340526540534	0.004
7	656	20.340526540534	0.002
7	656	20.340526540534	0.002
7	656	20.340526540534	0.102
7	679	20.341178540534	0.004
7	679	20.341178540534	0.004
7	685	20.34117884867	0.002
7	685	20.34117884867	0.012
7	707	20.34183084867	0.004
7	717	20.341831193271	0.004
9	388	20.002964223082	0.002
9	388	20.002964223082	0.102
9	400	20.003312223082	0.004
9	400	20.003312223082	0.004
9	421	20.006888486371	0.002
9	421	20.006888486371	0.012
9	433	20.007236486371	0.004
9	466	20.32422132872	0.002
9	466	20.32422132872	0.002
9	466	20.32422132872	0.102
9	478	20.32456932872	0.004
9	478	20.32456932872	0.004
9	499	20.327583453708	0.002
9	499	20.327583453708	0.012
9	511	20.327931453708	0.004
9	537	20.332221526408	0.004
9	638	20.340194540534	0.002
9	638	20.340194540534	0.012
9	650	20.340526540534	0.004
9	656	20.340526540534	0.002
9	656	20.340526540534	0.002
9	656	20.340526540534	0.102
9	679	20.341178540534	0.004
9	679	20.341178540534	0.004
9	685	20.34117884867	0.002
9	685	20.34117884867	0.012
9	707	20.34183084867	0.004
9	717	20.341831193271	0.004
10	421	20.006888486371	3
10	433	20.007236486371	1
10	499	20.327583453708	3
10	511	20.327931453708	1
10	638	20.340194540534	3
10	650	20.340526540534	1
10	685	20.34117884867	3
10	707	20.34183084867	1
11	388	20.002964223082	2
11	400	20.003312223082	1
11	466	20.32422132872	2
11	478	20.32456932872	1
11	656	20.340526540534	2
11	679	20.341178540534	1
12	389	20.002964381314	-0.064811857525256
12	401	20.003312381314	-0.064816033525256
12	420	20.006888328139	-0.064830337312556
12	432	20.007236328139	-0.064865833312556
12	467	20.324221482788	-0.066133773931152
12	479	20.324569482788	-0.066137949931152
12	498	20.32758329964	-0.06615000519856
12	510	20.32793129964	-0.06618550119856
12	536	20.332221372341	-0.066202661489364
12	556	20.332569372341	-0.066206837489364
12	567	20.332569711597	-0.066206838846388
12	605	20.33562612778	-0.06621906451112
12	618	20.33595812778	-0.06622304851112
12	637	20.340194386466	-0.066239993545864
12	649	20.340526386466	-0.066273857545864
12	659	20.340526694602	-0.066273858778408
12	680	20.341178694602	-0.066281682778408
12	706	20.341830694602	-0.066348186778408
12	716	20.341831039204	-0.066348188156816
13	389	20.002964381314	0.002
13	389	20.002964381314	0.012
13	401	20.003312381314	0.004
13	420	20.006888328139	0.002
13	420	20.006888328139	0.002
13	420	20.006888328139	0.102
13	432	20.007236328139	0.004
13	432	20.007236328139	0.004
13	467	20.324221482788	0.002
13	467	20.324221482788	0.012
13	479	20.324569482788	0.004
13	498	20.32758329964	0.002
13	498	20.32758329964	0.002
13	498	20.32758329964	0.102
13	510	20.32793129964	0.004
13	510	20.32793129964	0.004
13	536	20.332221372341	0.002
13	536	20.332221372341	0.012
13	556	20.332569372341	0.004
13	567	20.332569711597	0.004
13	605	20.33562612778	0.002
13	605	20.33562612778	0.012
13	618	20.33595812778	0.004
13	637	20.340194386466	0.002
13	637	20.340194386466	0.002
13	637	20.340194386466	0.102
13	649	20.340526386466	0.004
13	649	20.340526386466	0.004
13	659	20.340526694602	0.002
13	659	20.340526694602	0.012
13	680	20.341178694602	0.004
13	684	20.341178694602	0.002
13	684	20.341178694602	0.002
13	684	20.341178694602	0.102
13	706	20.341830694602	0.004
13	706	20.341830694602	0.004
13	716	20.341831039204	0.002
13	716	20.341831039204	0.012
15	389	20.002964381314	0.002
15	389	20.002964381314	0.012
15	401	20.003312381314	0.004
15	420	20.006888328139	0.002
15	420	20.006888328139	0.002
15	420	20.006888328139	0.102
15	432	20.007236328139	0.004
15	432	20.007236328139	0.004
15	467	20.324221482788	0.002
15	467	20.324221482788	0.012
15	479	20.324569482788	0.004
15	498	20.32758329964	0.002
15	498	20.32758329964	0.002
15	498	20.32758329964	0.102
15	510	20.32793129964	0.004
15	510	20.32793129964	0.004
15	536	20.332221372341	0.002
15	536	20.332221372341	0.012
15	556	20.332569372341	0.004
15	567	20.332569711597	0.004
15	605	20.33562612778	0.002
15	605	20.33562612778	0.012
15	618	20.33595812778	0.004
15	637	20.340194386466	0.002
15	637	20.340194386466	0.002
15	637	20.340194386466	0.102
15	649	20.340526386466	0.004
15	649	20.340526386466	0.004
15	659	20.340526694602	0.002
15	659	20.340526694602	0.012
15	680	20.341178694602	0.004
15	684	20.341178694602	0.002
15	684	20.341178694602	0.002
15	684	20.341178694602	0.102
15	706	20.341830694602	0.004
15	706	20.341830694602	0.004
15	716	20.341831039204	0.002
15	716	20.341831039204	0.012
16	389	20.002964381314	3
16	401	20.003312381314	1
16	467	20.324221482788	3
16	479	20.324569482788	1
16	536	20.332221372341	3
16	556	20.332569372341	1
16	605	20.33562612778	3
16	618	20.33595812778	1
16	659	20.340526694602	3
16	680	20.341178694602	1
16	716	20.341831039204	3
17	420	20.006888328139	2
17	432	20.007236328139	1
17	498	20.32758329964	2
17	510	20.32793129964	1
17	637	20.340194386466	2
17	649	20.340526386466	1
17	684	20.341178694602	2
17	706	20.341830694602	1
24	422	20.006888500434	-0.050027554001736
24	438	20.007236500434	-0.050031730001736
24	468	20.324221655088	-0.051299670620352
24	500	20.327583471941	-0.051313117887764
24	516	20.327931471941	-0.051317293887764
24	534	20.33222120004	-0.05133445280016
24	546	20.33256920004	-0.05136994880016
24	562	20.332569539592	-0.051369950158368
24	582	20.332901539592	-0.051373934158368
24	603	20.335625955479	-0.051384831821916
24	615	20.335957955479	-0.051418695821916
24	639	20.340194558767	-0.051435642235068
24	657	20.340526558767	-0.051439626235068
24	661	20.340526866902	-0.051439627467608
24	687	20.341178866903	-0.051442235467612
24	709	20.341830866903	-0.051450059467612
24	734	20.342482866903	-0.051516563467612
25	422	20.006888500434	0.002
25	422	20.006888500434	0.012
25	438	20.007236500434	0.004
25	468	20.324221655088	0.004
25	500	20.327583471941	0.002
25	500	20.327583471941	0.012
25	516	20.327931471941	0.004
25	534	20.33222120004	0.002
25	534	20.33222120004	0.002
25	534	20.33222120004	0.102
25	546	20.33256920004	0.004
25	546	20.33256920004	0.004
25	562	20.332569539592	0.002
25	562	20.332569539592	0.012
25	582	20.332901539592	0.004
25	603	20.335625955479	0.002
25	603	20.335625955479	0.002
25	603	20.335625955479	0.102
25	615	20.335957955479	0.004
25	615	20.335957955479	0.004
25	639	20.340194558767	0.002
25	639	20.340194558767	0.012
25	657	20.340526558767	0.004
25	661	20.340526866902	0.004
25	687	20.341178866903	0.002
25	687	20.341178866903	0.012
25	709	20.341830866903	0.004
25	713	20.341830866903	0.002
25	713	20.341830866903	0.002
25	713	20.341830866903	0.102
25	734	20.342482866903	0.004
25	734	20.342482866903	0.004
27	422	20.006888500434	0.002
27	422	20.006888500434	0.012
27	438	20.007236500434	0.004
27	468	20.324221655088	0.004
27	500	20.327583471941	0.002
27	500	20.327583471941	0.012
27	516	20.327931471941	0.004
27	534	20.33222120004	0.002
27	534	20.33222120004	0.002
27	534	20.33222120004	0.102
27	546	20.33256920004	0.004
27	546	20.33256920004	0.004
27	562	20.332569539592	0.002
27	562	20.332569539592	0.012
27	582	20.332901539592	0.004
27	603	20.335625955479	0.002
27	603	20.335625955479	0.002
27	603	20.335625955479	0.102
27	615	20.335957955479	0.004
27	615	20.335957955479	0.004
27	639	20.340194558767	0.002
27	639	20.340194558767	0.012
27	657	20.340526558767	0.004
27	661	20.340526866902	0.004
27	687	20.341178866903	0.002
27	687	20.341178866903	0.012
27	709	20.341830866903	0.004
27	713	20.341830866903	0.002
27	713	20.341830866903	0.002
27	713	20.341830866903	0.102
27	734	20.342482866903	0.004
27	734	20.342482866903	0.004
28	422	20.006888500434	3
28	438	20.007236500434	1
28	500	20.327583471941	3
28	516	20.327931471941	1
28	562	20.332569539592	3
28	582	20.332901539592	1
28	639	20.340194558767	3
28	657	20.340526558767	1
28	687	20.341178866903	3
28	709	20.341830866903	1
29	534	20.33222120004	2
29	546	20.33256920004	1
29	603	20.335625955479	2
29	615	20.335957955479	1
29	713	20.341830866903	2
29	734	20.342482866903	1
36	535	20.332221369816	-0.036528885479264
36	547	20.332569369816	-0.036533061479264
36	581	20.332901369816	-0.036566925479264
36	604	20.335626125255	-0.03657782450102
36	616	20.335958125255	-0.03658180850102
36	640	20.340194728247	-0.036598754912988
36	715	20.341831036679	-0.036605300146716
37	535	20.332221369816	0.002
37	535	20.332221369816	0.012
37	547	20.332569369816	0.004
37	555	20.332569369816	0.002
37	555	20.332569369816	0.002
37	555	20.332569369816	0.102
37	581	20.332901369816	0.004
37	581	20.332901369816	0.004
37	604	20.335626125255	0.002
37	604	20.335626125255	0.012
37	616	20.335958125255	0.004
37	640	20.340194728247	0.004
37	715	20.341831036679	0.002
37	715	20.341831036679	0.012
39	535	20.332221369816	0.002
39	535	20.332221369816	0.012
39	547	20.332569369816	0.004
39	555	20.332569369816	0.002
39	555	20.332569369816	0.002
39	555	20.332569369816	0.102
39	581	20.332901369816	0.004
39	581	20.332901369816	0.004
39	604	20.335626125255	0.002
39	604	20.335626125255	0.012
39	616	20.335958125255	0.004
39	640	20.340194728247	0.004
39	715	20.341831036679	0.002
39	715	20.341831036679	0.012
40	535	20.332221369816	3
40	547	20.332569369816	1
40	604	20.335626125255	3
40	616	20.335958125255	1
40	715	20.341831036679	3
41	555	20.332569369816	2
41	581	20.332901369816	1
48	564	20.332569542506	-0.021730278170024
48	587	20.332901542506	-0.021734262170024
48	607	20.33562629754	-0.02174516119016
49	564	20.332569542506	0.002
49	564	20.332569542506	0.012
49	587	20.332901542506	0.004
49	607	20.33562629754	0.004
51	564	20.332569542506	0.002
51	564	20.332569542506	0.012
51	587	20.332901542506	0.004
51	607	20.33562629754	0.004
52	564	20.332569542506	3
52	587	20.332901542506	1
72	379	20	100
73	382	20	108
73	385	20.002964223082	32
73	463	20.32422132872	32
74	387	20.002964223082	52
74	465	20.32422132872	52
74	655	20.340526540534	128
75	387	20.002964223082	52
75	465	20.32422132872	52
75	655	20.340526540534	128
76	387	20.002964223082	1
76	387	20.002964223082	0
76	465	20.32422132872	1
76	465	20.32422132872	0
76	655	20.340526540534	1
76	655	20.340526540534	0
77	387	20.002964223082	52
77	465	20.32422132872	52
77	655	20.340526540534	128
78	387	20.002964223082	0
78	465	20.32422132872	0
78	655	20.340526540534	0
79	387	20.002964223082	75
79	465	20.32422132872	75
79	655	20.340526540534	151
80	402	20.003312381314	75
80	480	20.324569482788	75
80	557	20.332569372341	75
80	619	20.33595812778	71
80	681	20.341178694602	151
81	402	20.003312381314	52
81	480	20.324569482788	52
81	557	20.332569372341	52
81	619	20.33595812778	48
81	681	20.341178694602	128
82	404	20.003312381314	32
82	482	20.324569482788	32
82	559	20.332569372341	32
82	621	20.33595812778	28
83	404	20.003312381314	1
83	482	20.324569482788	2
83	559	20.332569372341	3
83	621	20.33595812778	4
84	417	20.006888328139	32
84	495	20.32758329964	32
84	634	20.340194386466	28
85	419	20.006888328139	52
85	497	20.32758329964	52
85	636	20.340194386466	48
85	683	20.341178694602	128
86	419	20.006888328139	52
86	497	20.32758329964	52
86	636	20.340194386466	48
86	683	20.341178694602	128
87	419	20.006888328139	1
87	419	20.006888328139	0
87	497	20.32758329964	1
87	497	20.32758329964	0
87	636	20.340194386466	1
87	636	20.340194386466	0
87	683	20.341178694602	1
87	683	20.341178694602	0
88	419	20.006888328139	52
88	497	20.32758329964	52
88	636	20.340194386466	48
88	683	20.341178694602	128
89	419	20.006888328139	0
89	497	20.32758329964	0
89	636	20.340194386466	0
89	683	20.341178694602	0
90	419	20.006888328139	75
90	497	20.32758329964	75
90	636	20.340194386466	71
90	683	20.341178694602	151
91	434	20.007236486371	75
91	512	20.327931453708	75
91	651	20.340526540534	71
91	708	20.34183084867	151
92	434	20.007236486371	52
92	512	20.327931453708	52
92	651	20.340526540534	48
93	436	20.007236486371	32
93	514	20.327931453708	32
93	653	20.340526540534	28
94	436	20.007236486371	1
94	514	20.327931453708	2
94	653	20.340526540534	3
95	439	20.007236500434	75
95	517	20.327931471941	75
95	583	20.332901539592	71
95	658	20.340526558767	71
95	710	20.341830866903	151
96	439	20.007236500434	52
96	517	20.327931471941	52
96	583	20.332901539592	48
96	710	20.341830866903	128
97	441	20.007236500434	32
97	519	20.327931471941	32
97	585	20.332901539592	28
98	441	20.007236500434	1
98	519	20.327931471941	2
98	585	20.332901539592	3
99	531	20.33222120004	32
99	600	20.335625955479	28
100	533	20.33222120004	52
100	602	20.335625955479	48
100	712	20.341830866903	128
101	533	20.33222120004	52
101	602	20.335625955479	48
101	712	20.341830866903	128
102	533	20.33222120004	1
102	533	20.33222120004	0
102	602	20.335625955479	1
102	602	20.335625955479	0
102	712	20.341830866903	1
102	712	20.341830866903	0
103	533	20.33222120004	52
103	602	20.335625955479	48
103	712	20.341830866903	128
104	533	20.33222120004	0
104	602	20.335625955479	0
104	712	20.341830866903	0
105	533	20.33222120004	75
105	602	20.335625955479	71
105	712	20.341830866903	151
106	548	20.332569369816	75
106	617	20.335958125255	71
107	548	20.332569369816	52
108	550	20.332569369816	32
109	550	20.332569369816	1
110	552	20.332569369816	28
111	554	20.332569369816	48
112	554	20.332569369816	48
113	554	20.332569369816	1
113	554	20.332569369816	0
114	554	20.332569369816	48
115	554	20.332569369816	0
116	554	20.332569369816	71
117	588	20.332901542506	71
118	588	20.332901542506	71
119	617	20.335958125255	71
120	658	20.340526558767	71
121	708	20.34183084867	151
vector 122 Scenario.normal_car[6].app[0] packetReceived:vector(packetBytes) ETV
attr interpolationmode none
attr source packetReceived
attr title "packets received, vector(packetBytes)"
vector 123 Scenario.normal_car[6].app[0] throughput:vector ETV
attr source throughput(packetReceived)
attr title "throughput, vector"
attr unit bps
vector 124 Scenario.normal_car[6].app[0] endToEndDelay:vector ETV
attr interpolationmode none
attr source dataAge(packetReceived)
attr title "end-to-end delay, vector"
attr unit s
vector 125 Scenario.normal_car[6].app[0] rcvdPkSeqNo:vector ETV
attr interpolationmode none
attr source appPkSeqNo(packetReceived)
attr title "received packet sequence number, vector"
vector 126 Scenario.normal_car[2].wlan[0].mac packetDropNotAddressedToUs:vector(packetBytes) ETV
attr interpolationmode none
attr source packetDropReasonIsNotAddressedToUs(packetDropped)
attr title "packet drop: not addressed to us, vector(packetBytes)"
vector 127 Scenario.normal_car[12].energyStorage residualEnergyCapacity:vector ETV
attr interpolationmode linear
attr source residualEnergyCapacityChanged
attr title "Residual energy capacity, vector"
vector 128 Scenario.normal_car[12].energyStorage powerConsumption:vector ETV
attr interpolationmode sample-hold
attr source powerConsumptionChanged
attr title "Power consumption, vector"
vector 129 Scenario.normal_car[12].wlan[0].radio radioMode:vector ETV
attr interpolationmode sample-hold
attr source radioModeChanged
attr title "Radio mode, vector"
vector 130 Scenario.normal_car[12].wlan[0].radio.energyConsumer powerConsumption:vector ETV
attr interpolationmode sample-hold
attr source powerConsumptionChanged
attr title "Power consumption, vector"
vector 131 Scenario.normal_car[12].wlan[0].radio receptionState:vector ETV
attr interpolationmode sample-hold
attr source receptionStateChanged
attr title "Radio reception state, vector"
vector 132 Scenario.normal_car[12].wlan[0].radio transmissionState:vector ETV
attr interpolationmode sample-hold
attr source transmissionStateChanged
attr title "Radio transmission state, vector"
vector 133 Scenario.normal_car[13].energyStorage residualEnergyCapacity:vector ETV
attr interpolationmode linear
attr source residualEnergyCapacityChanged
attr title "Residual energy capacity, vector"
vector 134 Scenario.normal_car[13].energyStorage powerConsumption:vector ETV
attr interpolationmode sample-hold
attr source powerConsumptionChanged
attr title "Power consumption, vector"
vector 135 Scenario.normal_car[13].wlan[0].radio radioMode:vector ETV
attr interpolationmode sample-hold
attr source radioModeChanged
attr title "Radio mode, vector"
vector 136 Scenario.normal_car[13].wlan[0].radio.energyConsumer powerConsumption:vector ETV
attr interpolationmode sample-hold
attr source powerConsumptionChanged
attr title "Power consumption, vector"
vector 137 Scenario.normal_car[13].wlan[0].radio receptionState:vector ETV
attr interpolationmode sample-hold
attr source receptionStateChanged
attr title "Radio reception state, vector"
vector 138 Scenario.normal_car[13].wlan[0].radio transmissionState:vector ETV
attr interpolationmode sample-hold
attr source transmissionStateChanged
attr title "Radio transmission state, vector"
vector 139 Scenario.normal_car[14].energyStorage residualEnergyCapacity:vector ETV
attr interpolationmode linear
attr source residualEnergyCapacityChanged
attr title "Residual energy capacity, vector"
vector 140 Scenario.normal_car[14].energyStorage powerConsumption:vector ETV
attr interpolationmode sample-hold
attr source powerConsumptionChanged
attr title "Power consumption, vector"
vector 141 Scenario.normal_car[14].wlan[0].radio radioMode:vector ETV
attr interpolationmode sample-hold
attr source radioModeChanged
attr title "Radio mode, vector"
vector 142 Scenario.normal_car[14].wlan[0].radio.energyConsumer powerConsumption:vector ETV
attr interpolationmode sample-hold
attr source powerConsumptionChanged
attr title "Power consumption, vector"
vector 143 Scenario.normal_car[14].wlan[0].radio receptionState:vector ETV
attr interpolationmode sample-hold
attr source receptionStateChanged
attr title "Radio reception state, vector"
vector 144 Scenario.normal_car[14].wlan[0].radio transmissionState:vector ETV
attr interpolationmode sample-hold
attr source transmissionStateChanged
attr title "Radio transmission state, vector"
vector 145 Scenario.normal_car[0].wlan[0].mac rcvdPkFromLl:vector(packetBytes) ETV
attr interpolationmode none
attr source packetReceivedFromLower
attr title "packets received from lower layer, vector(packetBytes)"
vector 146 Scenario.normal_car[0].wlan[0].mac packetDropNotAddressedToUs:vector(packetBytes) ETV
attr interpolationmode none
attr source packetDropReasonIsNotAddressedToUs(packetDropped)
attr title "packet drop: not addressed to us, vector(packetBytes)"
vector 147 Scenario.normal_car[3].wlan[0].mac rcvdPkFromLl:vector(packetBytes) ETV
attr interpolationmode none
attr source packetReceivedFromLower
attr title "packets received from lower layer, vector(packetBytes)"
vector 148 Scenario.normal_car[3].wlan[0].mac packetDropNotAddressedToUs:vector(packetBytes) ETV
attr interpolationmode none
attr source packetDropReasonIsNotAddressedToUs(packetDropped)
attr title "packet drop: not addressed to us, vector(packetBytes)"
vector 149 Scenario.normal_car[5].wlan[0].mac rcvdPkFromLl:vector(packetBytes) ETV
attr interpolationmode none
attr source packetReceivedFromLower
attr title "packets received from lower layer, vector(packetBytes)"
vector 150 Scenario.normal_car[5].wlan[0].mac packetDropNotAddressedToUs:vector(packetBytes) ETV
attr interpolationmode none
attr source packetDropReasonIsNotAddressedToUs(packetDropped)
attr title "packet drop: not addressed to us, vector(packetBytes)"
vector 151 Scenario.normal_car[7].wlan[0].mac rcvdPkFromLl:vector(packetBytes) ETV
attr interpolationmode none
attr source packetReceivedFromLower
attr title "packets received from lower layer, vector(packetBytes)"
vector 152 Scenario.normal_car[7].wlan[0].mac packetDropNotAddressedToUs:vector(packetBytes) ETV
attr interpolationmode none
attr source packetDropReasonIsNotAddressedToUs(packetDropped)
attr title "packet drop: not addressed to us, vector(packetBytes)"
vector 153 Scenario.normal_car[9].wlan[0].mac rcvdPkFromLl:vector(packetBytes) ETV
attr interpolationmode none
attr source packetReceivedFromLower
attr title "packets received from lower layer, vector(packetBytes)"
vector 154 Scenario.normal_car[9].wlan[0].mac packetDropNotAddressedToUs:vector(packetBytes) ETV
attr interpolationmode none
attr source packetDropReasonIsNotAddressedToUs(packetDropped)
attr title "packet drop: not addressed to us, vector(packetBytes)"
vector 155 Scenario.normal_car[11].wlan[0].mac rcvdPkFromLl:vector(packetBytes) ETV
attr interpolationmode none
attr source packetReceivedFromLower
attr title "packets received from lower layer, vector(packetBytes)"
vector 156 Scenario.normal_car[11].wlan[0].mac packetDropNotAddressedToUs:vector(packetBytes) ETV
attr interpolationmode none
attr source packetDropReasonIsNotAddressedToUs(packetDropped)
attr title "packet drop: not addressed to us, vector(packetBytes)"
vector 157 Scenario.normal_car[12].wlan[0].mac rcvdPkFromLl:vector(packetBytes) ETV
attr interpolationmode none
attr source packetReceivedFromLower
attr title "packets received from lower layer, vector(packetBytes)"
vector 158 Scenario.normal_car[12].wlan[0].mac packetDropNotAddressedToUs:vector(packetBytes) ETV
attr interpolationmode none
attr source packetDropReasonIsNotAddressedToUs(packetDropped)
attr title "packet drop: not addressed to us, vector(packetBytes)"
vector 159 Scenario.normal_car[0].app[0] throughput:vector ETV
attr source throughput(packetReceived)
attr title "throughput, vector"
attr unit bps
vector 160 Scenario.normal_car[1].app[0] throughput:vector ETV
attr source throughput(packetReceived)
attr title "throughput, vector"
attr unit bps
vector 161 Scenario.normal_car[2].app[0] throughput:vector ETV
attr source throughput(packetReceived)
attr title "throughput, vector"
attr unit bps
vector 162 Scenario.normal_car[3].app[0] throughput:vector ETV
attr source throughput(packetReceived)
attr title "throughput, vector"
attr unit bps
vector 163 Scenario.normal_car[4].app[0] throughput:vector ETV
attr source throughput(packetReceived)
attr title "throughput, vector"
attr unit bps
vector 164 Scenario.normal_car[5].app[0] throughput:vector ETV
attr source throughput(packetReceived)
attr title "throughput, vector"
attr unit bps
vector 165 Scenario.normal_car[7].app[0] throughput:vector ETV
attr source throughput(packetReceived)
attr title "throughput, vector"
attr unit bps
vector 166 Scenario.normal_car[8].app[0] throughput:vector ETV
attr source throughput(packetReceived)
attr title "throughput, vector"
attr unit bps
vector 167 Scenario.normal_car[9].app[0] throughput:vector ETV
attr source throughput(packetReceived)
attr title "throughput, vector"
attr unit bps
vector 168 Scenario.normal_car[10].app[0] throughput:vector ETV
attr source throughput(packetReceived)
attr title "throughput, vector"
attr unit bps
vector 169 Scenario.normal_car[11].app[0] throughput:vector ETV
attr source throughput(packetReceived)
attr title "throughput, vector"
attr unit bps
vector 170 Scenario.normal_car[12].app[0] throughput:vector ETV
attr source throughput(packetReceived)
attr title "throughput, vector"
attr unit bps
vector 171 Scenario.normal_car[13].app[0] throughput:vector ETV
attr source throughput(packetReceived)
attr title "throughput, vector"
attr unit bps
vector 172 Scenario.normal_car[14].app[0] throughput:vector ETV
attr source throughput(packetReceived)
attr title "throughput, vector"
attr unit bps
0	1812	29.00000015152	-0.11560000060608
0	1827	29.00065215152	-0.11560782460608
0	1840	29.000652446254	-0.11560782578502
0	1950	30.00000005978	-0.11960521623912
0	1965	30.00065205978	-0.11961304023912
0	1979	30.000652381055	-0.11961304152422
0	2007	30.001304381055	-0.11962086552422
0	2017	30.001304625795	-0.11962086650318
0	2089	31.000000035772	-0.12361564814309
0	2104	31.000652035772	-0.12362347214309
0	2116	31.0006523066	-0.1236234732264
0	2145	31.0013043066	-0.1236312972264
0	2156	31.001304566698	-0.12363129826679
0	2230	32.000000127564	-0.12762608051026
0	2246	32.000652127564	-0.12763390451026
0	2256	32.000652222215	-0.12763390488886
0	2281	32.001304222215	-0.12764172888886
0	2295	32.00130451959	-0.12764173007836
0	2324	32.00195651959	-0.12764955407836
0	2374	33.000000218744	-0.13164172887498
0	2395	33.000652218744	-0.13164955287498
0	2397	33.000652224229	-0.13164955289692
0	2422	33.001304224229	-0.13165737689692
0	2436	33.001304474936	-0.13165737789974
0	2464	33.001956474936	-0.13166520189974
0	2518	34.000000306561	-0.13565737722624
0	2543	34.000652312894	-0.13565998525158
0	2568	34.001304312894	-0.13566780925158
0	2579	34.00130441457	-0.13566780965828
0	2603	34.00195641457	-0.13567563365828
0	2664	35.000000391609	-0.13966780956644
0	2691	35.000652396613	-0.13967041758645
0	2721	35.001304396613	-0.13967824158645
0	2723	35.001304405962	-0.13967824162385
0	2747	35.001956405962	-0.13968606562385
0	2810	36.000000467037	-0.14367824186815
0	2870	36.001304484967	-0.14368345793987
0	2894	36.001956484967	-0.14369128193987
0	2957	37.000000534519	-0.14768345813808
0	3017	37.001304560859	-0.14768867424344
0	3044	37.001956560859	-0.14769649824344
0	3100	38.000000589374	-0.1516886743575
1	1812	29.00000015152	0.002
1	1812	29.00000015152	0.012
1	1827	29.00065215152	0.004
1	1840	29.000652446254	0.004
1	1950	30.00000005978	0.002
1	1950	30.00000005978	0.012
1	1965	30.00065205978	0.004
1	1979	30.000652381055	0.012
1	2007	30.001304381055	0.004
1	2017	30.001304625795	0.004
1	2089	31.000000035772	0.002
1	2089	31.000000035772	0.012
1	2104	31.000652035772	0.004
1	2116	31.0006523066	0.012
1	2145	31.0013043066	0.004
1	2156	31.001304566698	0.004
1	2230	32.000000127564	0.002
1	2230	32.000000127564	0.012
1	2246	32.000652127564	0.004
1	2256	32.000652222215	0.012
1	2281	32.001304222215	0.004
1	2295	32.00130451959	0.012
1	2324	32.00195651959	0.004
1	2374	33.000000218744	0.012
1	2395	33.000652218744	0.004
1	2397	33.000652224229	0.012
1	2422	33.001304224229	0.004
1	2436	33.001304474936	0.012
1	2464	33.001956474936	0.004
1	2518	34.000000306561	0.004
1	2543	34.000652312894	0.002
1	2543	34.000652312894	0.012
1	2568	34.001304312894	0.004
1	2579	34.00130441457	0.012
1	2603	34.00195641457	0.004
1	2664	35.000000391609	0.004
1	2691	35.000652396613	0.002
1	2691	35.000652396613	0.012
1	2721	35.001304396613	0.004
1	2723	35.001304405962	0.012
1	2747	35.001956405962	0.004
1	2810	36.000000467037	0.004
1	2870	36.001304484967	0.002
1	2870	36.001304484967	0.012
1	2894	36.001956484967	0.004
1	2957	37.000000534519	0.004
1	3017	37.001304560859	0.002
1	3017	37.001304560859	0.012
1	3044	37.001956560859	0.004
1	3100	38.000000589374	0.004
3	1812	29.00000015152	0.002
3	1812	29.00000015152	0.012
3	1827	29.00065215152	0.004
3	1840	29.000652446254	0.004
3	1950	30.00000005978	0.002
3	1950	30.00000005978	0.012
3	1965	30.00065205978	0.004
3	1979	30.000652381055	0.012
3	2007	30.001304381055	0.004
3	2017	30.001304625795	0.004
3	2089	31.000000035772	0.002
3	2089	31.000000035772	0.012
3	2104	31.000652035772	0.004
3	2116	31.0006523066	0.012
3	2145	31.0013043066	0.004
3	2156	31.001304566698	0.004
3	2230	32.000000127564	0.002
3	2230	32.000000127564	0.012
3	2246	32.000652127564	0.004
3	2256	32.000652222215	0.012
3	2281	32.001304222215	0.004
3	2295	32.00130451959	0.012
3	2324	32.00195651959	0.004
3	2374	33.000000218744	0.012
3	2395	33.000652218744	0.004
3	2397	33.000652224229	0.012
3	2422	33.001304224229	0.004
3	2436	33.001304474936	0.012
3	2464	33.001956474936	0.004
3	2518	34.000000306561	0.004
3	2543	34.000652312894	0.002
3	2543	34.000652312894	0.012
3	2568	34.001304312894	0.004
3	2579	34.00130441457	0.012
3	2603	34.00195641457	0.004
3	2664	35.000000391609	0.004
3	2691	35.000652396613	0.002
3	2691	35.000652396613	0.012
3	2721	35.001304396613	0.004
3	2723	35.001304405962	0.012
3	2747	35.001956405962	0.004
3	2810	36.000000467037	0.004
3	2870	36.001304484967	0.002
3	2870	36.001304484967	0.012
3	2894	36.001956484967	0.004
3	2957	37.000000534519	0.004
3	3017	37.001304560859	0.002
3	3017	37.001304560859	0.012
3	3044	37.001956560859	0.004
3	3100	38.000000589374	0.004
4	1812	29.00000015152	3
4	1827	29.00065215152	1
4	1950	30.00000005978	3
4	1965	30.00065205978	1
4	1979	30.000652381055	3
4	2007	30.001304381055	1
4	2089	31.000000035772	3
4	2104	31.000652035772	1
4	2116	31.0006523066	3
4	2145	31.0013043066	1
4	2230	32.000000127564	3
4	2246	32.000652127564	1
4	2256	32.000652222215	3
4	2281	32.001304222215	1
4	2295	32.00130451959	3
4	2324	32.00195651959	1
4	2374	33.000000218744	3
4	2395	33.000652218744	1
4	2397	33.000652224229	3
4	2422	33.001304224229	1
4	2436	33.001304474936	3
4	2464	33.001956474936	1
4	2543	34.000652312894	3
4	2568	34.001304312894	1
4	2579	34.00130441457	3
4	2603	34.00195641457	1
4	2691	35.000652396613	3
4	2721	35.001304396613	1
4	2723	35.001304405962	3
4	2747	35.001956405962	1
4	2870	36.001304484967	3
4	2894	36.001956484967	1
4	3017	37.001304560859	3
4	3044	37.001956560859	1
6	777	21	-0.083745544
6	789	21.000652	-0.083812048
6	795	21.000652275428	-0.083812049101712
6	817	21.001304275428	-0.083819873101712
6	827	21.001304619768	-0.083819874479072
6	890	22	-0.087814656
6	902	22.000652	-0.08788116
6	908	22.000652226052	-0.087881160904208
6	930	22.001304226052	-0.087888984904208
6	940	22.001304563384	-0.087888986253536
6	1013	23	-0.091883768
6	1027	23.000652	-0.091950272
6	1033	23.00065220921	-0.09195027283684
6	1059	23.00130420921	-0.09195809683684
6	1069	23.001304537607	-0.091958098150428
6	1144	24	-0.09595288
6	1158	24.000652	-0.096019384
6	1164	24.000652195558	-0.096019384782232
6	1190	24.001304195558	-0.096027208782232
6	1200	24.001304497656	-0.096027209990624
6	1271	25	-0.100021992
6	1285	25.000652	-0.100088496
6	1291	25.000652204946	-0.10008849681978
6	1318	25.001304204946	-0.10009632081978
6	1328	25.001304459134	-0.10009632183654
6	1357	25.001956459134	-0.10010414583654
6	1402	26	-0.10409632
6	1416	26.000652	-0.104162824
6	1426	26.000652233222	-0.10416282493289
6	1455	26.001304233222	-0.10417064893289
6	1461	26.001304443267	-0.10417064977307
6	1490	26.001956443267	-0.10417847377307
6	1538	27	-0.108170648
6	1553	27.000652	-0.108237152
6	1562	27.000652240974	-0.1082371529639
6	1593	27.001304240974	-0.1082449769639
6	1598	27.001304440734	-0.10824497776294
6	1629	27.001956440734	-0.10825280176294
6	1675	28	-0.112244976
6	1690	28.000652	-0.11231148
6	1700	28.00065227753	-0.11231148111012
6	1730	28.00130427753	-0.11231930511012
6	1735	28.001304468694	-0.11231930587478
6	1811	29	-0.116314088
6	1826	29.000652	-0.116380592
6	1836	29.000652311396	-0.11638059324558
6	1867	29.001304311396	-0.11638841724558
6	1874	29.001304525589	-0.11638841810236
6	1949	30	-0.1203832
6	1964	30.000652	-0.120449704
6	1976	30.000652329552	-0.12044970531821
6	2005	30.001304329552	-0.12045752931821
6	2016	30.001304576236	-0.12045753030494
6	2088	31	-0.124452312
6	2103	31.000652	-0.124518816
6	2117	31.000652342306	-0.12451881736922
6	2147	31.001304342306	-0.12452664136922
6	2157	31.001304602328	-0.12452664240931
6	2228	32	-0.128521424
6	2243	32.000652	-0.128587928
6	2259	32.000652349776	-0.1285879293991
6	2288	32.001304349776	-0.1285957533991
6	2299	32.001304639729	-0.12859575455892
6	2370	33	-0.132590536
6	2385	33.000652	-0.13265704
6	2402	33.00065235309	-0.13265704141236
6	2432	33.00130435309	-0.13266486541236
6	2443	33.001304683532	-0.13266486673413
6	2513	34	-0.136659648
6	2528	34.000652	-0.136726152
6	2544	34.000652353116	-0.13672615341246
6	2570	34.001304353116	-0.13673397741246
6	2588	34.001304718108	-0.13673397887243
6	2657	35	-0.14072876
6	2672	35.000652	-0.140795264
6	2687	35.00065235019	-0.14079526540076
6	2714	35.00130435019	-0.14080308940076
6	2735	35.001304744854	-0.14080309097942
6	2802	36	-0.144797872
6	2817	36.000652	-0.144864376
6	2833	36.000652346058	-0.14486437738423
6	2859	36.001304346058	-0.14487220138423
6	2881	36.001304758524	-0.1448722030341
6	2947	37	-0.148866984
6	2962	37.000652	-0.148933488
6	2976	37.000652345182	-0.14893348938073
6	3002	37.001304345182	-0.14894131338073
6	3025	37.0013047577	-0.1489413150308
6	3090	38	-0.152936096
6	3105	38.000652	-0.1530026
6	3120	38.000652345802	-0.15300260138321
6	3146	38.001304345802	-0.15301042538321
6	3170	38.001304749642	-0.15301042699857
6	3233	39	-0.157005208
6	3248	39.000652	-0.157071712
6	3263	39.000652349798	-0.15707171339919
6	3289	39.001304349798	-0.15707953739919
6	3314	39.001304745445	-0.15707953898178
6	3377	40	-0.16107432
6	3392	40.000652	-0.161140824
6	3408	40.000652353126	-0.1611408254125
6	3435	40.001304353126	-0.1611486494125
6	3457	40.001304744214	-0.16114865097686
6	3520	41	-0.165143432
6	3535	41.000652	-0.165209936
6	3549	41.000652354188	-0.16520993741675
6	3576	41.001304354188	-0.16521776141675
6	3598	41.001304748617	-0.16521776299447
6	3664	42	-0.169212544
6	3679	42.000652	-0.169279048
6	3691	42.000652354252	-0.16927904941701
6	3719	42.001304354252	-0.16928687341701
6	3740	42.001304758658	-0.16928687503463
6	3806	43	-0.173281656
6	3821	43.000652	-0.17334816
6	3833	43.000652354386	-0.17334816141754
6	3861	43.001304354386	-0.17335598541754
6	3880	43.001304767401	-0.1733559870696
6	3947	44	-0.177350768
6	3962	44.000652	-0.177417272
6	3971	44.000652354332	-0.17741727341733
6	3999	44.001304354332	-0.17742509741733
6	4020	44.001304773544	-0.17742509909418
6	4088	45	-0.18141988
6	4103	45.000652	-0.181486384
6	4112	45.000652354296	-0.18148638541718
6	4140	45.001304354296	-0.18149420941718
6	4158	45.001304776328	-0.18149421110531
6	4227	46	-0.185488992
6	4242	46.000652	-0.185555496
6	4248	46.000652353854	-0.18555549741542
6	4276	46.001304353854	-0.18556332141542
6	4296	46.001304776257	-0.18556332310503
6	4365	47	-0.189558104
6	4380	47.000652	-0.189624608
6	4387	47.000652353236	-0.18962460941294
6	4415	47.001304353236	-0.18963243341294
6	4431	47.001304775389	-0.18963243510156
6	4502	48	-0.193627216
6	4517	48.000652	-0.19369372
6	4523	48.000652348094	-0.19369372139238
6	4551	48.001304348094	-0.19370154539238
6	4568	48.001304768817	-0.19370154707527
6	4638	49	-0.197696328
6	4653	49.000652	-0.197762832
6	4659	49.000652342008	-0.19776283336803
6	4687	49.001304342008	-0.19777065736803
6	4701	49.001304757888	-0.19777065903155
6	4773	50	-0.20176544
6	4788	50.000652	-0.201831944
6	4795	50.000652342042	-0.20183194536817
6	4823	50.001304342042	-0.20183976936817
6	4837	50.001304749726	-0.2018397709989
6	4908	51	-0.205834552
6	4923	51.000652	-0.205901056
6	4929	51.000652349912	-0.20590105739965
6	4957	51.001304349912	-0.20590888139965
6	4970	51.001304749	-0.205908882996
6	5044	52	-0.209903664
6	5059	52.000652	-0.209970168
6	5065	52.000652353868	-0.20997016941547
6	5093	52.001304353868	-0.20997799341547
6	5105	52.001304747302	-0.20997799498921
6	5178	53	-0.213972776
6	5193	53.000652	-0.21403928
6	5200	53.000652354294	-0.21403928141718
6	5228	53.001304354294	-0.21404710541718
6	5240	53.001304747135	-0.21404710698854
6	5314	54	-0.218041888
6	5329	54.000652	-0.218108392
6	5335	54.00065235428	-0.21810839341712
6	5363	54.00130435428	-0.21811621741712
6	5376	54.001304755219	-0.21811621902088
6	5449	55	-0.222111
6	5464	55.000652	-0.222177504
6	5471	55.000652354076	-0.2221775054163
6	5499	55.001304354076	-0.2221853294163
6	5511	55.001304764793	-0.22218533105917
6	5585	56	-0.226180112
6	5600	56.000652	-0.226246616
6	5606	56.000652354004	-0.22624661741602
6	5634	56.001304354004	-0.22625444141602
6	5646	56.001304774873	-0.22625444309949
6	5719	57	-0.230249224
6	5734	57.000652	-0.230315728
6	5741	57.00065235252	-0.23031572941008
6	5769	57.00130435252	-0.23032355341008
6	5782	57.001304774552	-0.23032355509821
6	5856	58	-0.234318336
6	5871	58.000652	-0.23438484
6	5877	58.000652343946	-0.23438484137578
6	5905	58.001304343946	-0.23439266537578
6	5917	58.001304763767	-0.23439266705507
6	5990	59	-0.238387448
6	6005	59.000652	-0.238453952
6	6011	59.00065233026	-0.23845395332104
6	6039	59.00130433026	-0.23846177732104
6	6052	59.00130474223	-0.23846177896892
6	6126	60	-0.24245656
6	6141	60.000652	-0.242523064
6	6148	60.00065233259	-0.24252306533036
6	6176	60.00130433259	-0.24253088933036
6	6188	60.00130472903	-0.24253089091612
7	777	21	0.002
7	777	21	0.102
7	789	21.000652	0.004
7	789	21.000652	0.004
7	795	21.000652275428	0.002
7	795	21.000652275428	0.012
7	817	21.001304275428	0.004
7	827	21.001304619768	0.004
7	890	22	0.002
7	890	22	0.102
7	902	22.000652	0.004
7	902	22.000652	0.004
7	908	22.000652226052	0.002
7	908	22.000652226052	0.012
7	930	22.001304226052	0.004
7	940	22.001304563384	0.004
7	1013	23	0.002
7	1013	23	0.102
7	1027	23.000652	0.004
7	1027	23.000652	0.004
7	1033	23.00065220921	0.002
7	1033	23.00065220921	0.012
7	1059	23.00130420921	0.004
7	1069	23.001304537607	0.004
7	1144	24	0.002
7	1144	24	0.102
7	1158	24.000652	0.004
7	1158	24.000652	0.004
7	1164	24.000652195558	0.002
7	1164	24.000652195558	0.012
7	1190	24.001304195558	0.004
7	1200	24.001304497656	0.004
7	1271	25	0.002
7	1271	25	0.102
7	1285	25.000652	0.004
7	1285	25.000652	0.004
7	1291	25.000652204946	0.002
7	1291	25.000652204946	0.012
7	1318	25.001304204946	0.004
7	1328	25.001304459134	0.012
7	1357	25.001956459134	0.004
7	1402	26	0.002
7	1402	26	0.002
7	1402	26	0.102
7	1416	26.000652	0.004
7	1416	26.000652	0.004
7	1426	26.000652233222	0.002
7	1426	26.000652233222	0.012
7	1455	26.001304233222	0.004
7	1461	26.001304443267	0.012
7	1490	26.001956443267	0.004
7	1538	27	0.002
7	1538	27	0.002
7	1538	27	0.102
7	1553	27.000652	0.004
7	1553	27.000652	0.004
7	1562	27.000652240974	0.002
7	1562	27.000652240974	0.012
7	1593	27.001304240974	0.004
7	1598	27.001304440734	0.012
7	1629	27.001956440734	0.004
7	1675	28	0.002
7	1675	28	0.002
7	1675	28	0.102
7	1690	28.000652	0.004
7	1690	28.000652	0.004
7	1700	28.00065227753	0.002
7	1700	28.00065227753	0.012
7	1730	28.00130427753	0.004
7	1735	28.001304468694	0.004
7	1811	29	0.002
7	1811	29	0.102
7	1826	29.000652	0.004
7	1826	29.000652	0.004
7	1836	29.000652311396	0.002
7	1836	29.000652311396	0.012
7	1867	29.001304311396	0.004
7	1874	29.001304525589	0.004
7	1949	30	0.002
7	1949	30	0.102
7	1964	30.000652	0.004
7	1964	30.000652	0.004
7	1976	30.000652329552	0.002
7	1976	30.000652329552	0.012
7	2005	30.001304329552	0.004
7	2016	30.001304576236	0.004
7	2088	31	0.002
7	2088	31	0.102
7	2103	31.000652	0.004
7	2103	31.000652	0.004
7	2117	31.000652342306	0.002
7	2117	31.000652342306	0.012
7	2147	31.001304342306	0.004
7	2157	31.001304602328	0.004
7	2228	32	0.002
7	2228	32	0.102
7	2243	32.000652	0.004
7	2243	32.000652	0.004
7	2259	32.000652349776	0.002
7	2259	32.000652349776	0.012
7	2288	32.001304349776	0.004
7	2299	32.001304639729	0.004
7	2370	33	0.002
7	2370	33	0.102
7	2385	33.000652	0.004
7	2385	33.000652	0.004
7	2402	33.00065235309	0.002
7	2402	33.00065235309	0.012
7	2432	33.00130435309	0.004
7	2443	33.001304683532	0.004
7	2513	34	0.002
7	2513	34	0.102
7	2528	34.000652	0.004
7	2528	34.000652	0.004
7	2544	34.000652353116	0.002
7	2544	34.000652353116	0.012
7	2570	34.001304353116	0.004
7	2588	34.001304718108	0.004
7	2657	35	0.002
7	2657	35	0.102
7	2672	35.000652	0.004
7	2672	35.000652	0.004
7	2687	35.00065235019	0.002
7	2687	35.00065235019	0.012
7	2714	35.00130435019	0.004
7	2735	35.001304744854	0.004
7	2802	36	0.002
7	2802	36	0.102
7	2817	36.000652	0.004
7	2817	36.000652	0.004
7	2833	36.000652346058	0.002
7	2833	36.000652346058	0.012
7	2859	36.001304346058	0.004
7	2881	36.001304758524	0.004
7	2947	37	0.002
7	2947	37	0.102
7	2962	37.000652	0.004
7	2962	37.000652	0.004
7	2976	37.000652345182	0.002
7	2976	37.000652345182	0.012
7	3002	37.001304345182	0.004
7	3025	37.0013047577	0.004
7	3090	38	0.002
7	3090	38	0.102
7	3105	38.000652	0.004
7	3105	38.000652	0.004
7	3120	38.000652345802	0.002
7	3120	38.000652345802	0.012
7	3146	38.001304345802	0.004
7	3170	38.001304749642	0.004
7	3233	39	0.002
7	3233	39	0.102
7	3248	39.000652	0.004
7	3248	39.000652	0.004
7	3263	39.000652349798	0.002
7	3263	39.000652349798	0.012
7	3289	39.001304349798	0.004
7	3314	39.001304745445	0.004
7	3377	40	0.002
7	3377	40	0.102
7	3392	40.000652	0.004
7	3392	40.000652	0.004
7	3408	40.000652353126	0.002
7	3408	40.000652353126	0.012
7	3435	40.001304353126	0.004
7	3457	40.001304744214	0.004
7	3520	41	0.002
7	3520	41	0.102
7	3535	41.000652	0.004
7	3535	41.000652	0.004
7	3549	41.000652354188	0.002
7	3549	41.000652354188	0.012
7	3576	41.001304354188	0.004
7	3598	41.001304748617	0.004
7	3664	42	0.002
7	3664	42	0.102
7	3679	42.000652	0.004
7	3679	42.000652	0.004
7	3691	42.000652354252	0.002
7	3691	42.000652354252	0.012
7	3719	42.001304354252	0.004
7	3740	42.001304758658	0.004
7	3806	43	0.002
7	3806	43	0.102
7	3821	43.000652	0.004
7	3821	43.000652	0.004
7	3833	43.000652354386	0.002
7	3833	43.000652354386	0.012
7	3861	43.001304354386	0.004
7	3880	43.001304767401	0.004
7	3947	44	0.002
7	3947	44	0.102
7	3962	44.000652	0.004
7	3962	44.000652	0.004
7	3971	44.000652354332	0.002
7	3971	44.000652354332	0.012
7	3999	44.001304354332	0.004
7	4020	44.001304773544	0.004
7	4088	45	0.002
7	4088	45	0.102
7	4103	45.000652	0.004
7	4103	45.000652	0.004
7	4112	45.000652354296	0.002
7	4112	45.000652354296	0.012
7	4140	45.001304354296	0.004
7	4158	45.001304776328	0.004
7	4227	46	0.002
7	4227	46	0.102
7	4242	46.000652	0.004
7	4242	46.000652	0.004
7	4248	46.000652353854	0.002
7	4248	46.000652353854	0.012
7	4276	46.001304353854	0.004
7	4296	46.001304776257	0.004
7	4365	47	0.002
7	4365	47	0.102
7	4380	47.000652	0.004
7	4380	47.000652	0.004
7	4387	47.000652353236	0.002
7	4387	47.000652353236	0.012
7	4415	47.001304353236	0.004
7	4431	47.001304775389	0.004
7	4502	48	0.002
7	4502	48	0.102
7	4517	48.000652	0.004
7	4517	48.000652	0.004
7	4523	48.000652348094	0.002
7	4523	48.000652348094	0.012
7	4551	48.001304348094	0.004
7	4568	48.001304768817	0.004
7	4638	49	0.002
7	4638	49	0.102
7	4653	49.000652	0.004
7	4653	49.000652	0.004
7	4659	49.000652342008	0.002
7	4659	49.000652342008	0.012
7	4687	49.001304342008	0.004
7	4701	49.001304757888	0.004
7	4773	50	0.002
7	4773	50	0.102
7	4788	50.000652	0.004
7	4788	50.000652	0.004
7	4795	50.000652342042	0.002
7	4795	50.000652342042	0.012
7	4823	50.001304342042	0.004
7	4837	50.001304749726	0.004
7	4908	51	0.002
7	4908	51	0.102
7	4923	51.000652	0.004
7	4923	51.000652	0.004
7	4929	51.000652349912	0.002
7	4929	51.000652349912	0.012
7	4957	51.001304349912	0.004
7	4970	51.001304749	0.004
7	5044	52	0.002
7	5044	52	0.102
7	5059	52.000652	0.004
7	5059	52.000652	0.004
7	5065	52.000652353868	0.002
7	5065	52.000652353868	0.012
7	5093	52.001304353868	0.004
7	5105	52.001304747302	0.004
7	5178	53	0.002
7	5178	53	0.102
7	5193	53.000652	0.004
7	5193	53.000652	0.004
7	5200	53.000652354294	0.002
7	5200	53.000652354294	0.012
7	5228	53.001304354294	0.004
7	5240	53.001304747135	0.004
7	5314	54	0.002
7	5314	54	0.102
7	5329	54.000652	0.004
7	5329	54.000652	0.004
7	5335	54.00065235428	0.002
7	5335	54.00065235428	0.012
7	5363	54.00130435428	0.004
7	5376	54.001304755219	0.004
7	5449	55	0.002
7	5449	55	0.102
7	5464	55.000652	0.004
7	5464	55.000652	0.004
7	5471	55.000652354076	0.002
7	5471	55.000652354076	0.012
7	5499	55.001304354076	0.004
7	5511	55.001304764793	0.004
7	5585	56	0.002
7	5585	56	0.102
7	5600	56.000652	0.004
7	5600	56.000652	0.004
7	5606	56.000652354004	0.002
7	5606	56.000652354004	0.012
7	5634	56.001304354004	0.004
7	5646	56.001304774873	0.004
7	5719	57	0.002
7	5719	57	0.102
7	5734	57.000652	0.004
7	5734	57.000652	0.004
7	5741	57.00065235252	0.002
7	5741	57.00065235252	0.012
7	5769	57.00130435252	0.004
7	5782	57.001304774552	0.004
7	5856	58	0.002
7	5856	58	0.102
7	5871	58.000652	0.004
7	5871	58.000652	0.004
7	5877	58.000652343946	0.002
7	5877	58.000652343946	0.012
7	5905	58.001304343946	0.004
7	5917	58.001304763767	0.004
7	5990	59	0.002
7	5990	59	0.102
7	6005	59.000652	0.004
7	6005	59.000652	0.004
7	6011	59.00065233026	0.002
7	6011	59.00065233026	0.012
7	6039	59.00130433026	0.004
7	6052	59.00130474223	0.004
7	6126	60	0.002
7	6126	60	0.102
7	6141	60.000652	0.004
7	6141	60.000652	0.004
7	6148	60.00065233259	0.002
7	6148	60.00065233259	0.012
7	6176	60.00130433259	0.004
7	6188	60.00130472903	0.004
9	777	21	0.002
9	777	21	0.102
9	789	21.000652	0.004
9	789	21.000652	0.004
9	795	21.000652275428	0.002
9	795	21.000652275428	0.012
9	817	21.001304275428	0.004
9	827	21.001304619768	0.004
9	890	22	0.002
9	890	22	0.102
9	902	22.000652	0.004
9	902	22.000652	0.004
9	908	22.000652226052	0.002
9	908	22.000652226052	0.012
9	930	22.001304226052	0.004
9	940	22.001304563384	0.004
9	1013	23	0.002
9	1013	23	0.102
9	1027	23.000652	0.004
9	1027	23.000652	0.004
9	1033	23.00065220921	0.002
9	1033	23.00065220921	0.012
9	1059	23.00130420921	0.004
9	1069	23.001304537607	0.004
9	1144	24	0.002
9	1144	24	0.102
9	1158	24.000652	0.004
9	1158	24.000652	0.004
9	1164	24.000652195558	0.002
9	1164	24.000652195558	0.012
9	1190	24.001304195558	0.004
9	1200	24.001304497656	0.004
9	1271	25	0.002
9	1271	25	0.102
9	1285	25.000652	0.004
9	1285	25.000652	0.004
9	1291	25.000652204946	0.002
9	1291	25.000652204946	0.012
9	1318	25.001304204946	0.004
9	1328	25.001304459134	0.012
9	1357	25.001956459134	0.004
9	1402	26	0.002
9	1402	26	0.002
9	1402	26	0.102
9	1416	26.000652	0.004
9	1416	26.000652	0.004
9	1426	26.000652233222	0.002
9	1426	26.000652233222	0.012
9	1455	26.001304233222	0.004
9	1461	26.001304443267	0.012
9	1490	26.001956443267	0.004
9	1538	27	0.002
9	1538	27	0.002
9	1538	27	0.102
9	1553	27.000652	0.004
9	1553	27.000652	0.004
9	1562	27.000652240974	0.002
9	1562	27.000652240974	0.012
9	1593	27.001304240974	0.004
9	1598	27.001304440734	0.012
9	1629	27.001956440734	0.004
9	1675	28	0.002
9	1675	28	0.002
9	1675	28	0.102
9	1690	28.000652	0.004
9	1690	28.000652	0.004
9	1700	28.00065227753	0.002
9	1700	28.00065227753	0.012
9	1730	28.00130427753	0.004
9	1735	28.001304468694	0.004
9	1811	29	0.002
9	1811	29	0.102
9	1826	29.000652	0.004
9	1826	29.000652	0.004
9	1836	29.000652311396	0.002
9	1836	29.000652311396	0.012
9	1867	29.001304311396	0.004
9	1874	29.001304525589	0.004
9	1949	30	0.002
9	1949	30	0.102
9	1964	30.000652	0.004
9	1964	30.000652	0.004
9	1976	30.000652329552	0.002
9	1976	30.000652329552	0.012
9	2005	30.001304329552	0.004
9	2016	30.001304576236	0.004
9	2088	31	0.002
9	2088	31	0.102
9	2103	31.000652	0.004
9	2103	31.000652	0.004
9	2117	31.000652342306	0.002
9	2117	31.000652342306	0.012
9	2147	31.001304342306	0.004
9	2157	31.001304602328	0.004
9	2228	32	0.002
9	2228	32	0.102
9	2243	32.000652	0.004
9	2243	32.000652	0.004
9	2259	32.000652349776	0.002
9	2259	32.000652349776	0.012
9	2288	32.001304349776	0.004
9	2299	32.001304639729	0.004
9	2370	33	0.002
9	2370	33	0.102
9	2385	33.000652	0.004
9	2385	33.000652	0.004
9	2402	33.00065235309	0.002
9	2402	33.00065235309	0.012
9	2432	33.00130435309	0.004
9	2443	33.001304683532	0.004
9	2513	34	0.002
9	2513	34	0.102
9	2528	34.000652	0.004
9	2528	34.000652	0.004
9	2544	34.000652353116	0.002
9	2544	34.000652353116	0.012
9	2570	34.001304353116	0.004
9	2588	34.001304718108	0.004
9	2657	35	0.002
9	2657	35	0.102
9	2672	35.000652	0.004
9	2672	35.000652	0.004
9	2687	35.00065235019	0.002
9	2687	35.00065235019	0.012
9	2714	35.00130435019	0.004
9	2735	35.001304744854	0.004
9	2802	36	0.002
9	2802	36	0.102
9	2817	36.000652	0.004
9	2817	36.000652	0.004
9	2833	36.000652346058	0.002
9	2833	36.000652346058	0.012
9	2859	36.001304346058	0.004
9	2881	36.001304758524	0.004
9	2947	37	0.002
9	2947	37	0.102
9	2962	37.000652	0.004
9	2962	37.000652	0.004
9	2976	37.000652345182	0.002
9	2976	37.000652345182	0.012
9	3002	37.001304345182	0.004
9	3025	37.0013047577	0.004
9	3090	38	0.002
9	3090	38	0.102
9	3105	38.000652	0.004
9	3105	38.000652	0.004
9	3120	38.000652345802	0.002
9	3120	38.000652345802	0.012
9	3146	38.001304345802	0.004
9	3170	38.001304749642	0.004
9	3233	39	0.002
9	3233	39	0.102
9	3248	39.000652	0.004
9	3248	39.000652	0.004
9	3263	39.000652349798	0.002
9	3263	39.000652349798	0.012
9	3289	39.001304349798	0.004
9	3314	39.001304745445	0.004
9	3377	40	0.002
9	3377	40	0.102
9	3392	40.000652	0.004
9	3392	40.000652	0.004
9	3408	40.000652353126	0.002
9	3408	40.000652353126	0.012
9	3435	40.001304353126	0.004
9	3457	40.001304744214	0.004
9	3520	41	0.002
9	3520	41	0.102
9	3535	41.000652	0.004
9	3535	41.000652	0.004
9	3549	41.000652354188	0.002
9	3549	41.000652354188	0.012
9	3576	41.001304354188	0.004
9	3598	41.001304748617	0.004
9	3664	42	0.002
9	3664	42	0.102
9	3679	42.000652	0.004
9	3679	42.000652	0.004
9	3691	42.000652354252	0.002
9	3691	42.000652354252	0.012
9	3719	42.001304354252	0.004
9	3740	42.001304758658	0.004
9	3806	43	0.002
9	3806	43	0.102
9	3821	43.000652	0.004
9	3821	43.000652	0.004
9	3833	43.000652354386	0.002
9	3833	43.000652354386	0.012
9	3861	43.001304354386	0.004
9	3880	43.001304767401	0.004
9	3947	44	0.002
9	3947	44	0.102
9	3962	44.000652	0.004
9	3962	44.000652	0.004
9	3971	44.000652354332	0.002
9	3971	44.000652354332	0.012
9	3999	44.001304354332	0.004
9	4020	44.001304773544	0.004
9	4088	45	0.002
9	4088	45	0.102
9	4103	45.000652	0.004
9	4103	45.000652	0.004
9	4112	45.000652354296	0.002
9	4112	45.000652354296	0.012
9	4140	45.001304354296	0.004
9	4158	45.001304776328	0.004
9	4227	46	0.002
9	4227	46	0.102
9	4242	46.000652	0.004
9	4242	46.000652	0.004
9	4248	46.000652353854	0.002
9	4248	46.000652353854	0.012
9	4276	46.001304353854	0.004
9	4296	46.001304776257	0.004
9	4365	47	0.002
9	4365	47	0.102
9	4380	47.000652	0.004
9	4380	47.000652	0.004
9	4387	47.000652353236	0.002
9	4387	47.000652353236	0.012
9	4415	47.001304353236	0.004
9	4431	47.001304775389	0.004
9	4502	48	0.002
9	4502	48	0.102
9	4517	48.000652	0.004
9	4517	48.000652	0.004
9	4523	48.000652348094	0.002
9	4523	48.000652348094	0.012
9	4551	48.001304348094	0.004
9	4568	48.001304768817	0.004
9	4638	49	0.002
9	4638	49	0.102
9	4653	49.000652	0.004
9	4653	49.000652	0.004
9	4659	49.000652342008	0.002
9	4659	49.000652342008	0.012
9	4687	49.001304342008	0.004
9	4701	49.001304757888	0.004
9	4773	50	0.002
9	4773	50	0.102
9	4788	50.000652	0.004
9	4788	50.000652	0.004
9	4795	50.000652342042	0.002
9	4795	50.000652342042	0.012
9	4823	50.001304342042	0.004
9	4837	50.001304749726	0.004
9	4908	51	0.002
9	4908	51	0.102
9	4923	51.000652	0.004
9	4923	51.000652	0.004
9	4929	51.000652349912	0.002
9	4929	51.000652349912	0.012
9	4957	51.001304349912	0.004
9	4970	51.001304749	0.004
9	5044	52	0.002
9	5044	52	0.102
9	5059	52.000652	0.004
9	5059	52.000652	0.004
9	5065	52.000652353868	0.002
9	5065	52.000652353868	0.012
9	5093	52.001304353868	0.004
[...]
170	6246	53.8	0
170	6246	53.9	0
170	6246	54	0
170	6246	54.1	0
170	6246	54.2	0
170	6246	54.3	0
170	6246	54.4	0
170	6246	54.5	0
170	6246	54.6	0
170	6246	54.7	0
170	6246	54.8	0
170	6246	54.9	0
170	6246	55	0
170	6246	55.1	0
170	6246	55.2	0
170	6246	55.3	0
170	6246	55.4	0
170	6246	55.5	0
170	6246	55.6	0
170	6246	55.7	0
170	6246	55.8	0
170	6246	55.9	0
170	6246	56	0
170	6246	56.1	0
170	6246	56.2	0
170	6246	56.3	0
170	6246	56.4	0
170	6246	56.5	0
170	6246	56.6	0
170	6246	56.7	0
170	6246	56.8	0
170	6246	56.9	0
170	6246	57	0
170	6246	57.1	0
170	6246	57.2	0
170	6246	57.3	0
170	6246	57.4	0
170	6246	57.5	0
170	6246	57.6	0
170	6246	57.7	0
170	6246	57.8	0
170	6246	57.9	0
170	6246	58	0
170	6246	58.1	0
170	6246	58.2	0
170	6246	58.3	0
170	6246	58.4	0
170	6246	58.5	0
170	6246	58.6	0
170	6246	58.7	0
170	6246	58.8	0
170	6246	58.9	0
170	6246	59	0
170	6246	59.1	0
170	6246	59.2	0
170	6246	59.3	0
170	6246	59.4	0
170	6246	59.5	0
170	6246	59.6	0
170	6246	59.7	0
170	6246	59.8	0
170	6246	59.9	0
170	6246	60	0
170	6246	60.1	0
170	6246	60.2	0
170	6246	60.3	0
170	6246	60.4	0
170	6246	60.5	0
171	6246	0.1	0
171	6246	0.2	0
171	6246	0.3	0
171	6246	0.4	0
171	6246	0.5	0
171	6246	0.6	0
171	6246	0.7	0
171	6246	0.8	0
171	6246	0.9	0
171	6246	1	0
171	6246	1.1	0
171	6246	1.2	0
171	6246	1.3	0
171	6246	1.4	0
171	6246	1.5	0
171	6246	1.6	0
171	6246	1.7	0
171	6246	1.8	0
171	6246	1.9	0
171	6246	2	0
171	6246	2.1	0
171	6246	2.2	0
171	6246	2.3	0
171	6246	2.4	0
171	6246	2.5	0
171	6246	2.6	0
171	6246	2.7	0
171	6246	2.8	0
171	6246	2.9	0
171	6246	3	0
171	6246	3.1	0
171	6246	3.2	0
171	6246	3.3	0
171	6246	3.4	0
171	6246	3.5	0
171	6246	3.6	0
171	6246	3.7	0
171	6246	3.8	0
171	6246	3.9	0
171	6246	4	0
171	6246	4.1	0
171	6246	4.2	0
171	6246	4.3	0
171	6246	4.4	0
171	6246	4.5	0
171	6246	4.6	0
171	6246	4.7	0
171	6246	4.8	0
171	6246	4.9	0
171	6246	5	0
171	6246	5.1	0
171	6246	5.2	0
171	6246	5.3	0
171	6246	5.4	0
171	6246	5.5	0
171	6246	5.6	0
171	6246	5.7	0
171	6246	5.8	0
171	6246	5.9	0
171	6246	6	0
171	6246	6.1	0
171	6246	6.2	0
171	6246	6.3	0
171	6246	6.4	0
171	6246	6.5	0
171	6246	6.6	0
171	6246	6.7	0
171	6246	6.8	0
171	6246	6.9	0
171	6246	7	0
171	6246	7.1	0
171	6246	7.2	0
171	6246	7.3	0
171	6246	7.4	0
171	6246	7.5	0
171	6246	7.6	0
171	6246	7.7	0
171	6246	7.8	0
171	6246	7.9	0
171	6246	8	0
171	6246	8.1	0
171	6246	8.2	0
171	6246	8.3	0
171	6246	8.4	0
171	6246	8.5	0
171	6246	8.6	0
171	6246	8.7	0
171	6246	8.8	0
171	6246	8.9	0
171	6246	9	0
171	6246	9.1	0
171	6246	9.2	0
171	6246	9.3	0
171	6246	9.4	0
171	6246	9.5	0
171	6246	9.6	0
171	6246	9.7	0
171	6246	9.8	0
171	6246	9.9	0
171	6246	10	0
171	6246	10.1	0
171	6246	10.2	0
171	6246	10.3	0
171	6246	10.4	0
171	6246	10.5	0
171	6246	10.6	0
171	6246	10.7	0
171	6246	10.8	0
171	6246	10.9	0
171	6246	11	0
171	6246	11.1	0
171	6246	11.2	0
171	6246	11.3	0
171	6246	11.4	0
171	6246	11.5	0
171	6246	11.6	0
171	6246	11.7	0
171	6246	11.8	0
171	6246	11.9	0
171	6246	12	0
171	6246	12.1	0
171	6246	12.2	0
171	6246	12.3	0
171	6246	12.4	0
171	6246	12.5	0
171	6246	12.6	0
171	6246	12.7	0
171	6246	12.8	0
171	6246	12.9	0
171	6246	13	0
171	6246	13.1	0
171	6246	13.2	0
171	6246	13.3	0
171	6246	13.4	0
171	6246	13.5	0
171	6246	13.6	0
171	6246	13.7	0
171	6246	13.8	0
171	6246	13.9	0
171	6246	14	0
171	6246	14.1	0
171	6246	14.2	0
171	6246	14.3	0
171	6246	14.4	0
171	6246	14.5	0
171	6246	14.6	0
171	6246	14.7	0
171	6246	14.8	0
171	6246	14.9	0
171	6246	15	0
171	6246	15.1	0
171	6246	15.2	0
171	6246	15.3	0
171	6246	15.4	0
171	6246	15.5	0
171	6246	15.6	0
171	6246	15.7	0
171	6246	15.8	0
171	6246	15.9	0
171	6246	16	0
171	6246	16.1	0
171	6246	16.2	0
171	6246	16.3	0
171	6246	16.4	0
171	6246	16.5	0
171	6246	16.6	0
171	6246	16.7	0
171	6246	16.8	0
171	6246	16.9	0
171	6246	17	0
171	6246	17.1	0
171	6246	17.2	0
171	6246	17.3	0
171	6246	17.4	0
171	6246	17.5	0
171	6246	17.6	0
171	6246	17.7	0
171	6246	17.8	0
171	6246	17.9	0
171	6246	18	0
171	6246	18.1	0
171	6246	18.2	0
171	6246	18.3	0
171	6246	18.4	0
171	6246	18.5	0
171	6246	18.6	0
171	6246	18.7	0
171	6246	18.8	0
171	6246	18.9	0
171	6246	19	0
171	6246	19.1	0
171	6246	19.2	0
171	6246	19.3	0
171	6246	19.4	0
171	6246	19.5	0
171	6246	19.6	0
171	6246	19.7	0
171	6246	19.8	0
171	6246	19.9	0
171	6246	20	0
171	6246	20.1	0
171	6246	20.2	0
171	6246	20.3	0
171	6246	20.4	0
171	6246	20.5	0
171	6246	20.6	0
171	6246	20.7	0
171	6246	20.8	0
171	6246	20.9	0
171	6246	21	0
171	6246	21.1	0
171	6246	21.2	0
171	6246	21.3	0
171	6246	21.4	0
171	6246	21.5	0
171	6246	21.6	0
171	6246	21.7	0
171	6246	21.8	0
171	6246	21.9	0
171	6246	22	0
171	6246	22.1	0
171	6246	22.2	0
171	6246	22.3	0
171	6246	22.4	0
171	6246	22.5	0
171	6246	22.6	0
171	6246	22.7	0
171	6246	22.8	0
171	6246	22.9	0
171	6246	23	0
171	6246	23.1	0
171	6246	23.2	0
171	6246	23.3	0
171	6246	23.4	0
171	6246	23.5	0
171	6246	23.6	0
171	6246	23.7	0
171	6246	23.8	0
171	6246	23.9	0
171	6246	24	0
171	6246	24.1	0
171	6246	24.2	0
171	6246	24.3	0
171	6246	24.4	0
171	6246	24.5	0
171	6246	24.6	0
171	6246	24.7	0
171	6246	24.8	0
171	6246	24.9	0
171	6246	25	0
171	6246	25.1	0
171	6246	25.2	0
171	6246	25.3	0
171	6246	25.4	0
171	6246	25.5	0
171	6246	25.6	0
171	6246	25.7	0
171	6246	25.8	0
171	6246	25.9	0
171	6246	26	0
171	6246	26.1	0
171	6246	26.2	0
171	6246	26.3	0
171	6246	26.4	0
171	6246	26.5	0
171	6246	26.6	0
171	6246	26.7	0
171	6246	26.8	0
171	6246	26.9	0
171	6246	27	0
171	6246	27.1	0
171	6246	27.2	0
171	6246	27.3	0
171	6246	27.4	0
171	6246	27.5	0
171	6246	27.6	0
171	6246	27.7	0
171	6246	27.8	0
171	6246	27.9	0
171	6246	28	0
171	6246	28.1	0
171	6246	28.2	0
171	6246	28.3	0
171	6246	28.4	0
171	6246	28.5	0
171	6246	28.6	0
171	6246	28.7	0
171	6246	28.8	0
171	6246	28.9	0
171	6246	29	0
171	6246	29.1	0
171	6246	29.2	0
171	6246	29.3	0
171	6246	29.4	0
171	6246	29.5	0
171	6246	29.6	0
171	6246	29.7	0
171	6246	29.8	0
171	6246	29.9	0
171	6246	30	0
171	6246	30.1	0
171	6246	30.2	0
171	6246	30.3	0
171	6246	30.4	0
171	6246	30.5	0
171	6246	30.6	0
171	6246	30.7	0
171	6246	30.8	0
171	6246	30.9	0
171	6246	31	0
171	6246	31.1	0
171	6246	31.2	0
171	6246	31.3	0
171	6246	31.4	0
171	6246	31.5	0
171	6246	31.6	0
171	6246	31.7	0
171	6246	31.8	0
171	6246	31.9	0
171	6246	32	0
171	6246	32.1	0
171	6246	32.2	0
171	6246	32.3	0
171	6246	32.4	0
171	6246	32.5	0
171	6246	32.6	0
171	6246	32.7	0
171	6246	32.8	0
171	6246	32.9	0
171	6246	33	0
171	6246	33.1	0
171	6246	33.2	0
171	6246	33.3	0
171	6246	33.4	0
171	6246	33.5	0
171	6246	33.6	0
171	6246	33.7	0
171	6246	33.8	0
171	6246	33.9	0
171	6246	34	0
171	6246	34.1	0
171	6246	34.2	0
171	6246	34.3	0
171	6246	34.4	0
171	6246	34.5	0
171	6246	34.6	0
171	6246	34.7	0
171	6246	34.8	0
171	6246	34.9	0
171	6246	35	0
171	6246	35.1	0
171	6246	35.2	0
171	6246	35.3	0
171	6246	35.4	0
171	6246	35.5	0
171	6246	35.6	0
171	6246	35.7	0
171	6246	35.8	0
171	6246	35.9	0
171	6246	36	0
171	6246	36.1	0
171	6246	36.2	0
171	6246	36.3	0
171	6246	36.4	0
171	6246	36.5	0
171	6246	36.6	0
171	6246	36.7	0
171	6246	36.8	0
171	6246	36.9	0
171	6246	37	0
171	6246	37.1	0
171	6246	37.2	0
171	6246	37.3	0
171	6246	37.4	0
171	6246	37.5	0
171	6246	37.6	0
171	6246	37.7	0
171	6246	37.8	0
171	6246	37.9	0
171	6246	38	0
171	6246	38.1	0
171	6246	38.2	0
171	6246	38.3	0
171	6246	38.4	0
171	6246	38.5	0
171	6246	38.6	0
171	6246	38.7	0
171	6246	38.8	0
171	6246	38.9	0
171	6246	39	0
171	6246	39.1	0
171	6246	39.2	0
171	6246	39.3	0
171	6246	39.4	0
171	6246	39.5	0
171	6246	39.6	0
171	6246	39.7	0
171	6246	39.8	0
171	6246	39.9	0
171	6246	40	0
171	6246	40.1	0
171	6246	40.2	0
171	6246	40.3	0
171	6246	40.4	0
171	6246	40.5	0
171	6246	40.6	0
171	6246	40.7	0
171	6246	40.8	0
171	6246	40.9	0
171	6246	41	0
171	6246	41.1	0
171	6246	41.2	0
171	6246	41.3	0
171	6246	41.4	0
171	6246	41.5	0
171	6246	41.6	0
171	6246	41.7	0
171	6246	41.8	0
171	6246	41.9	0
171	6246	42	0
171	6246	42.1	0
171	6246	42.2	0
171	6246	42.3	0
171	6246	42.4	0
171	6246	42.5	0
171	6246	42.6	0
171	6246	42.7	0
171	6246	42.8	0
171	6246	42.9	0
171	6246	43	0
171	6246	43.1	0
171	6246	43.2	0
171	6246	43.3	0
171	6246	43.4	0
171	6246	43.5	0
171	6246	43.6	0
171	6246	43.7	0
171	6246	43.8	0
171	6246	43.9	0
171	6246	44	0
171	6246	44.1	0
171	6246	44.2	0
171	6246	44.3	0
171	6246	44.4	0
171	6246	44.5	0
171	6246	44.6	0
171	6246	44.7	0
171	6246	44.8	0
171	6246	44.9	0
171	6246	45	0
171	6246	45.1	0
171	6246	45.2	0
171	6246	45.3	0
171	6246	45.4	0
171	6246	45.5	0
171	6246	45.6	0
171	6246	45.7	0
171	6246	45.8	0
171	6246	45.9	0
171	6246	46	0
171	6246	46.1	0
171	6246	46.2	0
171	6246	46.3	0
171	6246	46.4	0
171	6246	46.5	0
171	6246	46.6	0
171	6246	46.7	0
171	6246	46.8	0
171	6246	46.9	0
171	6246	47	0
171	6246	47.1	0
171	6246	47.2	0
171	6246	47.3	0
171	6246	47.4	0
171	6246	47.5	0
171	6246	47.6	0
171	6246	47.7	0
171	6246	47.8	0
171	6246	47.9	0
171	6246	48	0
171	6246	48.1	0
171	6246	48.2	0
171	6246	48.3	0
171	6246	48.4	0
171	6246	48.5	0
171	6246	48.6	0
171	6246	48.7	0
171	6246	48.8	0
171	6246	48.9	0
171	6246	49	0
171	6246	49.1	0
171	6246	49.2	0
171	6246	49.3	0
171	6246	49.4	0
171	6246	49.5	0
171	6246	49.6	0
171	6246	49.7	0
171	6246	49.8	0
171	6246	49.9	0
171	6246	50	0
171	6246	50.1	0
171	6246	50.2	0
171	6246	50.3	0
171	6246	50.4	0
171	6246	50.5	0
171	6246	50.6	0
171	6246	50.7	0
171	6246	50.8	0
171	6246	50.9	0
171	6246	51	0
171	6246	51.1	0
171	6246	51.2	0
171	6246	51.3	0
171	6246	51.4	0
171	6246	51.5	0
171	6246	51.6	0
171	6246	51.7	0
171	6246	51.8	0
171	6246	51.9	0
171	6246	52	0
171	6246	52.1	0
171	6246	52.2	0
171	6246	52.3	0
171	6246	52.4	0
171	6246	52.5	0
171	6246	52.6	0
171	6246	52.7	0
171	6246	52.8	0
171	6246	52.9	0
171	6246	53	0
171	6246	53.1	0
171	6246	53.2	0
171	6246	53.3	0
171	6246	53.4	0
171	6246	53.5	0
171	6246	53.6	0
171	6246	53.7	0
171	6246	53.8	0
171	6246	53.9	0
171	6246	54	0
171	6246	54.1	0
171	6246	54.2	0
171	6246	54.3	0
171	6246	54.4	0
171	6246	54.5	0
171	6246	54.6	0
171	6246	54.7	0
171	6246	54.8	0
171	6246	54.9	0
171	6246	55	0
171	6246	55.1	0
171	6246	55.2	0
171	6246	55.3	0
171	6246	55.4	0
171	6246	55.5	0
171	6246	55.6	0
171	6246	55.7	0
171	6246	55.8	0
171	6246	55.9	0
171	6246	56	0
171	6246	56.1	0
171	6246	56.2	0
171	6246	56.3	0
171	6246	56.4	0
171	6246	56.5	0
171	6246	56.6	0
171	6246	56.7	0
171	6246	56.8	0
171	6246	56.9	0
171	6246	57	0
171	6246	57.1	0
171	6246	57.2	0
171	6246	57.3	0
171	6246	57.4	0
171	6246	57.5	0
171	6246	57.6	0
171	6246	57.7	0
171	6246	57.8	0
171	6246	57.9	0
171	6246	58	0
171	6246	58.1	0
171	6246	58.2	0
171	6246	58.3	0
171	6246	58.4	0
171	6246	58.5	0
171	6246	58.6	0
171	6246	58.7	0
171	6246	58.8	0
171	6246	58.9	0
171	6246	59	0
171	6246	59.1	0
171	6246	59.2	0
171	6246	59.3	0
171	6246	59.4	0
171	6246	59.5	0
171	6246	59.6	0
171	6246	59.7	0
171	6246	59.8	0
171	6246	59.9	0
171	6246	60	0
171	6246	60.1	0
171	6246	60.2	0
171	6246	60.3	0
171	6246	60.4	0
171	6246	60.5	0
172	6246	0.1	0
172	6246	0.2	0
172	6246	0.3	0
172	6246	0.4	0
172	6246	0.5	0
172	6246	0.6	0
172	6246	0.7	0
172	6246	0.8	0
172	6246	0.9	0
172	6246	1	0
172	6246	1.1	0
172	6246	1.2	0
172	6246	1.3	0
172	6246	1.4	0
172	6246	1.5	0
172	6246	1.6	0
172	6246	1.7	0
172	6246	1.8	0
172	6246	1.9	0
172	6246	2	0
172	6246	2.1	0
172	6246	2.2	0
172	6246	2.3	0
172	6246	2.4	0
172	6246	2.5	0
172	6246	2.6	0
172	6246	2.7	0
172	6246	2.8	0
172	6246	2.9	0
172	6246	3	0
172	6246	3.1	0
172	6246	3.2	0
172	6246	3.3	0
172	6246	3.4	0
172	6246	3.5	0
172	6246	3.6	0
172	6246	3.7	0
172	6246	3.8	0
172	6246	3.9	0
172	6246	4	0
172	6246	4.1	0
172	6246	4.2	0
172	6246	4.3	0
172	6246	4.4	0
172	6246	4.5	0
172	6246	4.6	0
172	6246	4.7	0
172	6246	4.8	0
172	6246	4.9	0
172	6246	5	0
172	6246	5.1	0
172	6246	5.2	0
172	6246	5.3	0
172	6246	5.4	0
172	6246	5.5	0
172	6246	5.6	0
172	6246	5.7	0
172	6246	5.8	0
172	6246	5.9	0
172	6246	6	0
172	6246	6.1	0
172	6246	6.2	0
172	6246	6.3	0
172	6246	6.4	0
172	6246	6.5	0
172	6246	6.6	0
172	6246	6.7	0
172	6246	6.8	0
172	6246	6.9	0
172	6246	7	0
172	6246	7.1	0
172	6246	7.2	0
172	6246	7.3	0
172	6246	7.4	0
172	6246	7.5	0
172	6246	7.6	0
172	6246	7.7	0
172	6246	7.8	0
172	6246	7.9	0
172	6246	8	0
172	6246	8.1	0
172	6246	8.2	0
172	6246	8.3	0
172	6246	8.4	0
172	6246	8.5	0
172	6246	8.6	0
172	6246	8.7	0
172	6246	8.8	0
172	6246	8.9	0
172	6246	9	0
172	6246	9.1	0
172	6246	9.2	0
172	6246	9.3	0
172	6246	9.4	0
172	6246	9.5	0
172	6246	9.6	0
172	6246	9.7	0
172	6246	9.8	0
172	6246	9.9	0
172	6246	10	0
172	6246	10.1	0
172	6246	10.2	0
172	6246	10.3	0
172	6246	10.4	0
172	6246	10.5	0
172	6246	10.6	0
172	6246	10.7	0
172	6246	10.8	0
172	6246	10.9	0
172	6246	11	0
172	6246	11.1	0
172	6246	11.2	0
172	6246	11.3	0
172	6246	11.4	0
172	6246	11.5	0
172	6246	11.6	0
172	6246	11.7	0
172	6246	11.8	0
172	6246	11.9	0
172	6246	12	0
172	6246	12.1	0
172	6246	12.2	0
172	6246	12.3	0
172	6246	12.4	0
172	6246	12.5	0
172	6246	12.6	0
172	6246	12.7	0
172	6246	12.8	0
172	6246	12.9	0
172	6246	13	0
172	6246	13.1	0
172	6246	13.2	0
172	6246	13.3	0
172	6246	13.4	0
172	6246	13.5	0
172	6246	13.6	0
172	6246	13.7	0
172	6246	13.8	0
172	6246	13.9	0
172	6246	14	0
172	6246	14.1	0
172	6246	14.2	0
172	6246	14.3	0
172	6246	14.4	0
172	6246	14.5	0
172	6246	14.6	0
172	6246	14.7	0
172	6246	14.8	0
172	6246	14.9	0
172	6246	15	0
172	6246	15.1	0
172	6246	15.2	0
172	6246	15.3	0
172	6246	15.4	0
172	6246	15.5	0
172	6246	15.6	0
172	6246	15.7	0
172	6246	15.8	0
172	6246	15.9	0
172	6246	16	0
172	6246	16.1	0
172	6246	16.2	0
172	6246	16.3	0
172	6246	16.4	0
172	6246	16.5	0
172	6246	16.6	0
172	6246	16.7	0
172	6246	16.8	0
172	6246	16.9	0
172	6246	17	0
172	6246	17.1	0
172	6246	17.2	0
172	6246	17.3	0
172	6246	17.4	0
172	6246	17.5	0
172	6246	17.6	0
172	6246	17.7	0
172	6246	17.8	0
172	6246	17.9	0
172	6246	18	0
172	6246	18.1	0
172	6246	18.2	0
172	6246	18.3	0
172	6246	18.4	0
172	6246	18.5	0
172	6246	18.6	0
172	6246	18.7	0
172	6246	18.8	0
172	6246	18.9	0
172	6246	19	0
172	6246	19.1	0
172	6246	19.2	0
172	6246	19.3	0
172	6246	19.4	0
172	6246	19.5	0
172	6246	19.6	0
172	6246	19.7	0
172	6246	19.8	0
172	6246	19.9	0
172	6246	20	0
172	6246	20.1	0
172	6246	20.2	0
172	6246	20.3	0
172	6246	20.4	0
172	6246	20.5	0
172	6246	20.6	0
172	6246	20.7	0
172	6246	20.8	0
172	6246	20.9	0
172	6246	21	0
172	6246	21.1	0
172	6246	21.2	0
172	6246	21.3	0
172	6246	21.4	0
172	6246	21.5	0
172	6246	21.6	0
172	6246	21.7	0
172	6246	21.8	0
172	6246	21.9	0
172	6246	22	0
172	6246	22.1	0
172	6246	22.2	0
172	6246	22.3	0
172	6246	22.4	0
172	6246	22.5	0
172	6246	22.6	0
172	6246	22.7	0
172	6246	22.8	0
172	6246	22.9	0
172	6246	23	0
172	6246	23.1	0
172	6246	23.2	0
172	6246	23.3	0
172	6246	23.4	0
172	6246	23.5	0
172	6246	23.6	0
172	6246	23.7	0
172	6246	23.8	0
172	6246	23.9	0
172	6246	24	0
172	6246	24.1	0
172	6246	24.2	0
172	6246	24.3	0
172	6246	24.4	0
172	6246	24.5	0
172	6246	24.6	0
172	6246	24.7	0
172	6246	24.8	0
172	6246	24.9	0
172	6246	25	0
172	6246	25.1	0
172	6246	25.2	0
172	6246	25.3	0
172	6246	25.4	0
172	6246	25.5	0
172	6246	25.6	0
172	6246	25.7	0
172	6246	25.8	0
172	6246	25.9	0
172	6246	26	0
172	6246	26.1	0
172	6246	26.2	0
172	6246	26.3	0
172	6246	26.4	0
172	6246	26.5	0
172	6246	26.6	0
172	6246	26.7	0
172	6246	26.8	0
172	6246	26.9	0
172	6246	27	0
172	6246	27.1	0
172	6246	27.2	0
172	6246	27.3	0
172	6246	27.4	0
172	6246	27.5	0
172	6246	27.6	0
172	6246	27.7	0
172	6246	27.8	0
172	6246	27.9	0
172	6246	28	0
172	6246	28.1	0
172	6246	28.2	0
172	6246	28.3	0
172	6246	28.4	0
172	6246	28.5	0
172	6246	28.6	0
172	6246	28.7	0
172	6246	28.8	0
172	6246	28.9	0
172	6246	29	0
172	6246	29.1	0
172	6246	29.2	0
172	6246	29.3	0
172	6246	29.4	0
172	6246	29.5	0
172	6246	29.6	0
172	6246	29.7	0
172	6246	29.8	0
172	6246	29.9	0
172	6246	30	0
172	6246	30.1	0
172	6246	30.2	0
172	6246	30.3	0
172	6246	30.4	0
172	6246	30.5	0
172	6246	30.6	0
172	6246	30.7	0
172	6246	30.8	0
172	6246	30.9	0
172	6246	31	0
172	6246	31.1	0
172	6246	31.2	0
172	6246	31.3	0
172	6246	31.4	0
172	6246	31.5	0
172	6246	31.6	0
172	6246	31.7	0
172	6246	31.8	0
172	6246	31.9	0
172	6246	32	0
172	6246	32.1	0
172	6246	32.2	0
172	6246	32.3	0
172	6246	32.4	0
172	6246	32.5	0
172	6246	32.6	0
172	6246	32.7	0
172	6246	32.8	0
172	6246	32.9	0
172	6246	33	0
172	6246	33.1	0
172	6246	33.2	0
172	6246	33.3	0
172	6246	33.4	0
172	6246	33.5	0
172	6246	33.6	0
172	6246	33.7	0
172	6246	33.8	0
172	6246	33.9	0
172	6246	34	0
172	6246	34.1	0
172	6246	34.2	0
172	6246	34.3	0
172	6246	34.4	0
172	6246	34.5	0
172	6246	34.6	0
172	6246	34.7	0
172	6246	34.8	0
172	6246	34.9	0
172	6246	35	0
172	6246	35.1	0
172	6246	35.2	0
172	6246	35.3	0
172	6246	35.4	0
172	6246	35.5	0
172	6246	35.6	0
172	6246	35.7	0
172	6246	35.8	0
172	6246	35.9	0
172	6246	36	0
172	6246	36.1	0
172	6246	36.2	0
172	6246	36.3	0
172	6246	36.4	0
172	6246	36.5	0
172	6246	36.6	0
172	6246	36.7	0
172	6246	36.8	0
172	6246	36.9	0
172	6246	37	0
172	6246	37.1	0
172	6246	37.2	0
172	6246	37.3	0
172	6246	37.4	0
172	6246	37.5	0
172	6246	37.6	0
172	6246	37.7	0
172	6246	37.8	0
172	6246	37.9	0
172	6246	38	0
172	6246	38.1	0
172	6246	38.2	0
172	6246	38.3	0
172	6246	38.4	0
172	6246	38.5	0
172	6246	38.6	0
172	6246	38.7	0
172	6246	38.8	0
172	6246	38.9	0
172	6246	39	0
172	6246	39.1	0
172	6246	39.2	0
172	6246	39.3	0
172	6246	39.4	0
172	6246	39.5	0
172	6246	39.6	0
172	6246	39.7	0
172	6246	39.8	0
172	6246	39.9	0
172	6246	40	0
172	6246	40.1	0
172	6246	40.2	0
172	6246	40.3	0
172	6246	40.4	0
172	6246	40.5	0
172	6246	40.6	0
172	6246	40.7	0
172	6246	40.8	0
172	6246	40.9	0
172	6246	41	0
172	6246	41.1	0
172	6246	41.2	0
172	6246	41.3	0
172	6246	41.4	0
172	6246	41.5	0
172	6246	41.6	0
172	6246	41.7	0
172	6246	41.8	0
172	6246	41.9	0
172	6246	42	0
172	6246	42.1	0
172	6246	42.2	0
172	6246	42.3	0
172	6246	42.4	0
172	6246	42.5	0
172	6246	42.6	0
172	6246	42.7	0
172	6246	42.8	0
172	6246	42.9	0
172	6246	43	0
172	6246	43.1	0
172	6246	43.2	0
172	6246	43.3	0
172	6246	43.4	0
172	6246	43.5	0
172	6246	43.6	0
172	6246	43.7	0
172	6246	43.8	0
172	6246	43.9	0
172	6246	44	0
172	6246	44.1	0
172	6246	44.2	0
172	6246	44.3	0
172	6246	44.4	0
172	6246	44.5	0
172	6246	44.6	0
172	6246	44.7	0
172	6246	44.8	0
172	6246	44.9	0
172	6246	45	0
172	6246	45.1	0
172	6246	45.2	0
172	6246	45.3	0
172	6246	45.4	0
172	6246	45.5	0
172	6246	45.6	0
172	6246	45.7	0
172	6246	45.8	0
172	6246	45.9	0
172	6246	46	0
172	6246	46.1	0
172	6246	46.2	0
172	6246	46.3	0
172	6246	46.4	0
172	6246	46.5	0
172	6246	46.6	0
172	6246	46.7	0
172	6246	46.8	0
172	6246	46.9	0
172	6246	47	0
172	6246	47.1	0
172	6246	47.2	0
172	6246	47.3	0
172	6246	47.4	0
172	6246	47.5	0
172	6246	47.6	0
172	6246	47.7	0
172	6246	47.8	0
172	6246	47.9	0
172	6246	48	0
172	6246	48.1	0
172	6246	48.2	0
172	6246	48.3	0
172	6246	48.4	0
172	6246	48.5	0
172	6246	48.6	0
172	6246	48.7	0
172	6246	48.8	0
172	6246	48.9	0
172	6246	49	0
172	6246	49.1	0
172	6246	49.2	0
172	6246	49.3	0
172	6246	49.4	0
172	6246	49.5	0
172	6246	49.6	0
172	6246	49.7	0
172	6246	49.8	0
172	6246	49.9	0
172	6246	50	0
172	6246	50.1	0
172	6246	50.2	0
172	6246	50.3	0
172	6246	50.4	0
172	6246	50.5	0
172	6246	50.6	0
172	6246	50.7	0
172	6246	50.8	0
172	6246	50.9	0
172	6246	51	0
172	6246	51.1	0
172	6246	51.2	0
172	6246	51.3	0
172	6246	51.4	0
172	6246	51.5	0
172	6246	51.6	0
172	6246	51.7	0
172	6246	51.8	0
172	6246	51.9	0
172	6246	52	0
172	6246	52.1	0
172	6246	52.2	0
172	6246	52.3	0
172	6246	52.4	0
172	6246	52.5	0
172	6246	52.6	0
172	6246	52.7	0
172	6246	52.8	0
172	6246	52.9	0
172	6246	53	0
172	6246	53.1	0
172	6246	53.2	0
172	6246	53.3	0
172	6246	53.4	0
172	6246	53.5	0
172	6246	53.6	0
172	6246	53.7	0
172	6246	53.8	0
172	6246	53.9	0
172	6246	54	0
172	6246	54.1	0
172	6246	54.2	0
172	6246	54.3	0
172	6246	54.4	0
172	6246	54.5	0
172	6246	54.6	0
172	6246	54.7	0
172	6246	54.8	0
172	6246	54.9	0
172	6246	55	0
172	6246	55.1	0
172	6246	55.2	0
172	6246	55.3	0
172	6246	55.4	0
172	6246	55.5	0
172	6246	55.6	0
172	6246	55.7	0
172	6246	55.8	0
172	6246	55.9	0
172	6246	56	0
172	6246	56.1	0
172	6246	56.2	0
172	6246	56.3	0
172	6246	56.4	0
172	6246	56.5	0
172	6246	56.6	0
172	6246	56.7	0
172	6246	56.8	0
172	6246	56.9	0
172	6246	57	0
172	6246	57.1	0
172	6246	57.2	0
172	6246	57.3	0
172	6246	57.4	0
172	6246	57.5	0
172	6246	57.6	0
172	6246	57.7	0
172	6246	57.8	0
172	6246	57.9	0
172	6246	58	0
172	6246	58.1	0
172	6246	58.2	0
172	6246	58.3	0
172	6246	58.4	0
172	6246	58.5	0
172	6246	58.6	0
172	6246	58.7	0
172	6246	58.8	0
172	6246	58.9	0
172	6246	59	0
172	6246	59.1	0
172	6246	59.2	0
172	6246	59.3	0
172	6246	59.4	0
172	6246	59.5	0
172	6246	59.6	0
172	6246	59.7	0
172	6246	59.8	0
172	6246	59.9	0
172	6246	60	0
172	6246	60.1	0
172	6246	60.2	0
172	6246	60.3	0
172	6246	60.4	0
172	6246	60.5	0

